version 2
run VoIP-0-20190107-19:15:15-16582
attr configname VoIP
attr datetime 20190107-19:15:15
attr experiment VoIP
attr inifile omnetpp.ini
attr iterationvars ""
attr iterationvarsf ""
attr measurement ""
attr network MultiCell
attr processid 16582
attr repetition 0
attr replication #0
attr resultdir results
attr runnumber 0
attr seedset 0
param **.*TxPower 46
param **.channelControl.alpha 1.0
param **.channelControl.carrierFrequency 2100e+6Hz
param **.channelControl.pMax 10W
param **.deployer.antennaCws "\"2;\""
param **.deployer.broadcastMessageInterval 1s
param **.deployer.numPreferredBands 1
param **.deployer.numRbDl 6
param **.deployer.numRbUl 6
param **.deployer.numRus 0
param **.deployer.positionUpdateInterval 0.001s
param **.deployer.rbPilotDl 3
param **.deployer.rbPilotUl 0
param **.deployer.rbxDl 7
param **.deployer.rbxUl 7
param **.deployer.rbyDl 12
param **.deployer.rbyUl 12
param **.deployer.ruRange 50
param **.deployer.ruStartingAngle 0deg
param **.deployer.ruTxPower "\"50,50,50;\""
param **.deployer.signalDl 1
param **.deployer.signalUl 1
param **.enableHandover false
param **.fbDelay 1
param **.feedbackComputation "xmldoc(\"config_channel.xml\")"
param **.feedbackGeneratorType "\"IDEAL\""
param **.feedbackType "\"ALLBANDS\""
param **.lteNic.phy.channelModel "xmldoc(\"config_channel.xml\")"
param **.lteNic.phy.usePropagationDelay true
param **.mac.amcMode "\"AUTO\""
param **.mac.maxBytesPerTti 1KiB
param **.mac.queueSize 1MiB
param **.mac.schedulingDisciplineDl "\"MAXCI\""
param **.mac.schedulingDisciplineUl "\"MAXCI\""
param **.maxHarqRtx 3
param **.microTxPower 20
param **.mobility.constraintAreaMaxZ 0m
param **.mobility.constraintAreaMinZ 0m
param **.mobility.initFromDisplayString true
param **.pfAlpha 0.95
param **.pfTmsAwareDL false
param **.rbAllocationType "\"localized\""
param **.ue1*.macCellId 1
param **.ue1*.masterId 1
param **.ue2*.macCellId 2
param **.ue2*.masterId 2
param **.ueTxPower 26
param *.server.numUdpApps 1
param *.server.udpApp[*].PacketSize 40
param *.server.udpApp[*].destAddresses "\"\""
param *.server.udpApp[*].destPort 3000
param *.server.udpApp[*].localPort 3088+ancestorIndex(0)
param *.server.udpApp[*].startTime uniform(0s,0.02s)
param *.server.udpApp[*].typename "\"VoIPSender\""
param *.server.udpApp[0].destAddress "\"ue11\""
param *.server.udpApp[1].destAddress "\"ue12\""
param *.server.udpApp[2].destAddress "\"ue21\""
param *.server.udpApp[3].destAddress "\"ue22\""
param *.ue*.mobility.acceleration 0
param *.ue*.mobility.angle "uniform(0deg, 360deg)"
param *.ue*.mobility.constraintAreaMaxX 1000m
param *.ue*.mobility.constraintAreaMaxY 1000m
param *.ue*.mobility.constraintAreaMinX 0m
param *.ue*.mobility.constraintAreaMinY 0m
param *.ue*.mobility.initFromDisplayString false
param *.ue*.mobility.initialX uniform(0m,300m)
param *.ue*.mobility.initialY uniform(0m,300m)
param *.ue*.mobility.initialZ 0
param *.ue*.mobility.speed 0mps
param *.ue*.mobilityType "\"LinearMobility\""
param *.ue*.numUdpApps 1
param *.ue*.udpApp[*].typename "\"VoIPReceiver\""
param *.ue*.udpApp[0].localPort 3000
param *.ue*.udpApp[0].serverAddress "\"server\""

scalar MultiCell 	hackForCreateResultsFolder 	0
scalar MultiCell.server.networkLayer.arp 	failedARPResolution:count 	0
attr title  "ARP failed resolutions, count"
scalar MultiCell.server.networkLayer.arp 	completedARPResolution:count 	0
attr title  "ARP completed resolutions, count"
scalar MultiCell.server.networkLayer.arp 	initiatedARPResolution:count 	0
attr title  "ARP initiated resolutions, count"
scalar MultiCell.server.networkLayer.arp 	sentReply:count 	0
attr title  "ARP replies sent, count"
scalar MultiCell.server.networkLayer.arp 	sentReq:count 	0
attr title  "ARP request sent, count"
scalar MultiCell.server.lo0.lo 	droppedPkBitError:count 	0
attr interpolationmode  none
attr source  dropPkBitError
attr title  "packets dropped/bit error, count"
scalar MultiCell.server.lo0.lo 	droppedPkBitError:sum(packetBytes) 	0
attr interpolationmode  none
attr source  dropPkBitError
attr title  "packets dropped/bit error, sum(packetBytes)"
scalar MultiCell.server.lo0.lo 	rcvdPkFromHL:count 	0
attr interpolationmode  none
attr source  packetReceivedFromUpper
attr title  "packets received from higher layer, count"
scalar MultiCell.server.lo0.lo 	rcvdPkFromHL:sum(packetBytes) 	0
attr interpolationmode  none
attr source  packetReceivedFromUpper
attr title  "packets received from higher layer, sum(packetBytes)"
scalar MultiCell.server.lo0.lo 	passedUpPk:count 	0
attr interpolationmode  none
attr source  packetSentToUpper
attr title  "packets passed to higher layer, count"
scalar MultiCell.server.lo0.lo 	passedUpPk:sum(packetBytes) 	0
attr interpolationmode  none
attr source  packetSentToUpper
attr title  "packets passed to higher layer, sum(packetBytes)"
statistic MultiCell.server.ppp[0].queue 	queueingTime:histogram
field count 0
field mean -nan
field stddev -nan
field sum 0
field sqrsum 0
field min -nan
field max -nan
attr interpolationmode  none
attr title  "queueing time, histogram"
bin	-INF	0
bin	-0.5	0
bin	-0.46666666666667	0
bin	-0.43333333333333	0
bin	-0.4	0
bin	-0.36666666666667	0
bin	-0.33333333333333	0
bin	-0.3	0
bin	-0.26666666666667	0
bin	-0.23333333333333	0
bin	-0.2	0
bin	-0.16666666666667	0
bin	-0.13333333333333	0
bin	-0.1	0
bin	-0.066666666666667	0
bin	-0.033333333333333	0
bin	0	0
bin	0.033333333333333	0
bin	0.066666666666667	0
bin	0.1	0
bin	0.13333333333333	0
bin	0.16666666666667	0
bin	0.2	0
bin	0.23333333333333	0
bin	0.26666666666667	0
bin	0.3	0
bin	0.33333333333333	0
bin	0.36666666666667	0
bin	0.4	0
bin	0.43333333333333	0
bin	0.46666666666667	0
bin	0.5	0
scalar MultiCell.server.ppp[0].queue 	dropPk:count 	0
attr interpolationmode  none
attr source  dropPkByQueue
attr title  "dropped packets, count"
scalar MultiCell.server.ppp[0].queue 	dropPk:sum(packetBytes) 	0
attr interpolationmode  none
attr source  dropPkByQueue
attr title  "dropped packets, sum(packetBytes)"
scalar MultiCell.server.ppp[0].queue 	queueLength:max 	0
attr interpolationmode  sample-hold
attr title  "queue length, max"
scalar MultiCell.server.ppp[0].queue 	queueLength:timeavg 	-nan
attr interpolationmode  sample-hold
attr title  "queue length, timeavg"
scalar MultiCell.server.ppp[0].queue 	rcvdPk:count 	0
attr interpolationmode  none
attr title  "received packets, count"
scalar MultiCell.server.ppp[0].queue 	rcvdPk:sum(packetBytes) 	0
attr interpolationmode  none
attr title  "received packets, sum(packetBytes)"
scalar MultiCell.server.ppp[0].ppp 	txState:timeavg 	-nan
attr interpolationmode  sample-hold
attr title  "tx state, timeavg"
scalar MultiCell.server.ppp[0].ppp 	droppedPkIfaceDown:count 	0
attr interpolationmode  none
attr source  dropPkIfaceDown
attr title  "packets dropped/interface down, count"
scalar MultiCell.server.ppp[0].ppp 	droppedPkIfaceDown:sum(packetBytes) 	0
attr interpolationmode  none
attr source  dropPkIfaceDown
attr title  "packets dropped/interface down, sum(packetBytes)"
scalar MultiCell.server.ppp[0].ppp 	droppedPkBitError:count 	0
attr interpolationmode  none
attr source  dropPkBitError
attr title  "packets dropped/bit error, count"
scalar MultiCell.server.ppp[0].ppp 	droppedPkBitError:sum(packetBytes) 	0
attr interpolationmode  none
attr source  dropPkBitError
attr title  "packets dropped/bit error, sum(packetBytes)"
scalar MultiCell.server.ppp[0].ppp 	rxPkOk:count 	0
attr interpolationmode  none
attr source  rxPkOk
attr title  "packets received OK, count"
scalar MultiCell.server.ppp[0].ppp 	rxPkOk:sum(packetBytes) 	0
attr interpolationmode  none
attr source  rxPkOk
attr title  "packets received OK, sum(packetBytes)"
scalar MultiCell.server.ppp[0].ppp 	txPk:count 	0
attr interpolationmode  none
attr source  packetSentToLower
attr title  "packets transmitted, count"
scalar MultiCell.server.ppp[0].ppp 	txPk:sum(packetBytes) 	0
attr interpolationmode  none
attr source  packetSentToLower
attr title  "packets transmitted, sum(packetBytes)"
scalar MultiCell.server.ppp[0].ppp 	rcvdPkFromHL:count 	0
attr interpolationmode  none
attr source  packetReceivedFromUpper
attr title  "packets received from higher layer, count"
scalar MultiCell.server.ppp[0].ppp 	rcvdPkFromHL:sum(packetBytes) 	0
attr interpolationmode  none
attr source  packetReceivedFromUpper
attr title  "packets received from higher layer, sum(packetBytes)"
scalar MultiCell.server.ppp[0].ppp 	passedUpPk:count 	0
attr interpolationmode  none
attr source  packetSentToUpper
attr title  "packets passed to higher layer, count"
scalar MultiCell.server.ppp[0].ppp 	passedUpPk:sum(packetBytes) 	0
attr interpolationmode  none
attr source  packetSentToUpper
attr title  "packets passed to higher layer, sum(packetBytes)"
scalar MultiCell.server.udpApp[0] 	voIPGeneratedThroughtput:timeavg 	-nan
attr source  voIPGeneratedThroughtput
attr title  "Throughput generated by the application, timeavg"
attr unit  Bps
scalar MultiCell.server.udpApp[0] 	voIPGeneratedThroughtput:mean 	-nan
attr source  voIPGeneratedThroughtput
attr title  "Throughput generated by the application, mean"
attr unit  Bps
scalar MultiCell.server.udpApp[0] 	voIPGeneratedThroughtput:last(sumPerDuration) 	-nan
attr source  voIPGeneratedThroughtput
attr title  "Throughput generated by the application, last(sumPerDuration)"
attr unit  Bps
scalar MultiCell.server.udpApp[0] 	voIPGeneratedThroughtput:sum 	0
attr source  voIPGeneratedThroughtput
attr title  "Throughput generated by the application, sum"
attr unit  Bps
scalar MultiCell.server.udp 	droppedPkBadChecksum:count 	0
attr interpolationmode  none
attr title  "packets dropped (checksum error), count"
scalar MultiCell.server.udp 	droppedPkWrongPort:count 	0
attr interpolationmode  none
attr title  "packets dropped (wrong port), count"
scalar MultiCell.server.udp 	passedUpPk:count 	0
attr interpolationmode  none
attr title  "packets passed up, count"
scalar MultiCell.server.udp 	rcvdPk:count 	0
attr interpolationmode  none
attr source  rcvdPk
attr title  "packets received, count"
scalar MultiCell.server.udp 	rcvdPk:sum(packetBytes) 	0
attr interpolationmode  none
attr source  rcvdPk
attr title  "packets received, sum(packetBytes)"
scalar MultiCell.server.udp 	sentPk:count 	0
attr interpolationmode  none
attr source  sentPk
attr title  "packets sent, count"
scalar MultiCell.server.udp 	sentPk:sum(packetBytes) 	0
attr interpolationmode  none
attr source  sentPk
attr title  "packets sent, sum(packetBytes)"
scalar MultiCell.pgw.networkLayer.arp 	failedARPResolution:count 	0
attr title  "ARP failed resolutions, count"
scalar MultiCell.pgw.networkLayer.arp 	completedARPResolution:count 	0
attr title  "ARP completed resolutions, count"
scalar MultiCell.pgw.networkLayer.arp 	initiatedARPResolution:count 	0
attr title  "ARP initiated resolutions, count"
scalar MultiCell.pgw.networkLayer.arp 	sentReply:count 	0
attr title  "ARP replies sent, count"
scalar MultiCell.pgw.networkLayer.arp 	sentReq:count 	0
attr title  "ARP request sent, count"
scalar MultiCell.pgw.lo0.lo 	droppedPkBitError:count 	0
attr interpolationmode  none
attr source  dropPkBitError
attr title  "packets dropped/bit error, count"
scalar MultiCell.pgw.lo0.lo 	droppedPkBitError:sum(packetBytes) 	0
attr interpolationmode  none
attr source  dropPkBitError
attr title  "packets dropped/bit error, sum(packetBytes)"
scalar MultiCell.pgw.lo0.lo 	rcvdPkFromHL:count 	0
attr interpolationmode  none
attr source  packetReceivedFromUpper
attr title  "packets received from higher layer, count"
scalar MultiCell.pgw.lo0.lo 	rcvdPkFromHL:sum(packetBytes) 	0
attr interpolationmode  none
attr source  packetReceivedFromUpper
attr title  "packets received from higher layer, sum(packetBytes)"
scalar MultiCell.pgw.lo0.lo 	passedUpPk:count 	0
attr interpolationmode  none
attr source  packetSentToUpper
attr title  "packets passed to higher layer, count"
scalar MultiCell.pgw.lo0.lo 	passedUpPk:sum(packetBytes) 	0
attr interpolationmode  none
attr source  packetSentToUpper
attr title  "packets passed to higher layer, sum(packetBytes)"
statistic MultiCell.pgw.ppp[0].queue 	queueingTime:histogram
field count 0
field mean -nan
field stddev -nan
field sum 0
field sqrsum 0
field min -nan
field max -nan
attr interpolationmode  none
attr title  "queueing time, histogram"
bin	-INF	0
bin	-0.5	0
bin	-0.46666666666667	0
bin	-0.43333333333333	0
bin	-0.4	0
bin	-0.36666666666667	0
bin	-0.33333333333333	0
bin	-0.3	0
bin	-0.26666666666667	0
bin	-0.23333333333333	0
bin	-0.2	0
bin	-0.16666666666667	0
bin	-0.13333333333333	0
bin	-0.1	0
bin	-0.066666666666667	0
bin	-0.033333333333333	0
bin	0	0
bin	0.033333333333333	0
bin	0.066666666666667	0
bin	0.1	0
bin	0.13333333333333	0
bin	0.16666666666667	0
bin	0.2	0
bin	0.23333333333333	0
bin	0.26666666666667	0
bin	0.3	0
bin	0.33333333333333	0
bin	0.36666666666667	0
bin	0.4	0
bin	0.43333333333333	0
bin	0.46666666666667	0
bin	0.5	0
scalar MultiCell.pgw.ppp[0].queue 	dropPk:count 	0
attr interpolationmode  none
attr source  dropPkByQueue
attr title  "dropped packets, count"
scalar MultiCell.pgw.ppp[0].queue 	dropPk:sum(packetBytes) 	0
attr interpolationmode  none
attr source  dropPkByQueue
attr title  "dropped packets, sum(packetBytes)"
scalar MultiCell.pgw.ppp[0].queue 	queueLength:max 	0
attr interpolationmode  sample-hold
attr title  "queue length, max"
scalar MultiCell.pgw.ppp[0].queue 	queueLength:timeavg 	-nan
attr interpolationmode  sample-hold
attr title  "queue length, timeavg"
scalar MultiCell.pgw.ppp[0].queue 	rcvdPk:count 	0
attr interpolationmode  none
attr title  "received packets, count"
scalar MultiCell.pgw.ppp[0].queue 	rcvdPk:sum(packetBytes) 	0
attr interpolationmode  none
attr title  "received packets, sum(packetBytes)"
scalar MultiCell.pgw.ppp[0].ppp 	txState:timeavg 	-nan
attr interpolationmode  sample-hold
attr title  "tx state, timeavg"
scalar MultiCell.pgw.ppp[0].ppp 	droppedPkIfaceDown:count 	0
attr interpolationmode  none
attr source  dropPkIfaceDown
attr title  "packets dropped/interface down, count"
scalar MultiCell.pgw.ppp[0].ppp 	droppedPkIfaceDown:sum(packetBytes) 	0
attr interpolationmode  none
attr source  dropPkIfaceDown
attr title  "packets dropped/interface down, sum(packetBytes)"
scalar MultiCell.pgw.ppp[0].ppp 	droppedPkBitError:count 	0
attr interpolationmode  none
attr source  dropPkBitError
attr title  "packets dropped/bit error, count"
scalar MultiCell.pgw.ppp[0].ppp 	droppedPkBitError:sum(packetBytes) 	0
attr interpolationmode  none
attr source  dropPkBitError
attr title  "packets dropped/bit error, sum(packetBytes)"
scalar MultiCell.pgw.ppp[0].ppp 	rxPkOk:count 	0
attr interpolationmode  none
attr source  rxPkOk
attr title  "packets received OK, count"
scalar MultiCell.pgw.ppp[0].ppp 	rxPkOk:sum(packetBytes) 	0
attr interpolationmode  none
attr source  rxPkOk
attr title  "packets received OK, sum(packetBytes)"
scalar MultiCell.pgw.ppp[0].ppp 	txPk:count 	0
attr interpolationmode  none
attr source  packetSentToLower
attr title  "packets transmitted, count"
scalar MultiCell.pgw.ppp[0].ppp 	txPk:sum(packetBytes) 	0
attr interpolationmode  none
attr source  packetSentToLower
attr title  "packets transmitted, sum(packetBytes)"
scalar MultiCell.pgw.ppp[0].ppp 	rcvdPkFromHL:count 	0
attr interpolationmode  none
attr source  packetReceivedFromUpper
attr title  "packets received from higher layer, count"
scalar MultiCell.pgw.ppp[0].ppp 	rcvdPkFromHL:sum(packetBytes) 	0
attr interpolationmode  none
attr source  packetReceivedFromUpper
attr title  "packets received from higher layer, sum(packetBytes)"
scalar MultiCell.pgw.ppp[0].ppp 	passedUpPk:count 	0
attr interpolationmode  none
attr source  packetSentToUpper
attr title  "packets passed to higher layer, count"
scalar MultiCell.pgw.ppp[0].ppp 	passedUpPk:sum(packetBytes) 	0
attr interpolationmode  none
attr source  packetSentToUpper
attr title  "packets passed to higher layer, sum(packetBytes)"
statistic MultiCell.pgw.ppp[1].queue 	queueingTime:histogram
field count 0
field mean -nan
field stddev -nan
field sum 0
field sqrsum 0
field min -nan
field max -nan
attr interpolationmode  none
attr title  "queueing time, histogram"
bin	-INF	0
bin	-0.5	0
bin	-0.46666666666667	0
bin	-0.43333333333333	0
bin	-0.4	0
bin	-0.36666666666667	0
bin	-0.33333333333333	0
bin	-0.3	0
bin	-0.26666666666667	0
bin	-0.23333333333333	0
bin	-0.2	0
bin	-0.16666666666667	0
bin	-0.13333333333333	0
bin	-0.1	0
bin	-0.066666666666667	0
bin	-0.033333333333333	0
bin	0	0
bin	0.033333333333333	0
bin	0.066666666666667	0
bin	0.1	0
bin	0.13333333333333	0
bin	0.16666666666667	0
bin	0.2	0
bin	0.23333333333333	0
bin	0.26666666666667	0
bin	0.3	0
bin	0.33333333333333	0
bin	0.36666666666667	0
bin	0.4	0
bin	0.43333333333333	0
bin	0.46666666666667	0
bin	0.5	0
scalar MultiCell.pgw.ppp[1].queue 	dropPk:count 	0
attr interpolationmode  none
attr source  dropPkByQueue
attr title  "dropped packets, count"
scalar MultiCell.pgw.ppp[1].queue 	dropPk:sum(packetBytes) 	0
attr interpolationmode  none
attr source  dropPkByQueue
attr title  "dropped packets, sum(packetBytes)"
scalar MultiCell.pgw.ppp[1].queue 	queueLength:max 	0
attr interpolationmode  sample-hold
attr title  "queue length, max"
scalar MultiCell.pgw.ppp[1].queue 	queueLength:timeavg 	-nan
attr interpolationmode  sample-hold
attr title  "queue length, timeavg"
scalar MultiCell.pgw.ppp[1].queue 	rcvdPk:count 	0
attr interpolationmode  none
attr title  "received packets, count"
scalar MultiCell.pgw.ppp[1].queue 	rcvdPk:sum(packetBytes) 	0
attr interpolationmode  none
attr title  "received packets, sum(packetBytes)"
scalar MultiCell.pgw.ppp[1].ppp 	txState:timeavg 	-nan
attr interpolationmode  sample-hold
attr title  "tx state, timeavg"
scalar MultiCell.pgw.ppp[1].ppp 	droppedPkIfaceDown:count 	0
attr interpolationmode  none
attr source  dropPkIfaceDown
attr title  "packets dropped/interface down, count"
scalar MultiCell.pgw.ppp[1].ppp 	droppedPkIfaceDown:sum(packetBytes) 	0
attr interpolationmode  none
attr source  dropPkIfaceDown
attr title  "packets dropped/interface down, sum(packetBytes)"
scalar MultiCell.pgw.ppp[1].ppp 	droppedPkBitError:count 	0
attr interpolationmode  none
attr source  dropPkBitError
attr title  "packets dropped/bit error, count"
scalar MultiCell.pgw.ppp[1].ppp 	droppedPkBitError:sum(packetBytes) 	0
attr interpolationmode  none
attr source  dropPkBitError
attr title  "packets dropped/bit error, sum(packetBytes)"
scalar MultiCell.pgw.ppp[1].ppp 	rxPkOk:count 	0
attr interpolationmode  none
attr source  rxPkOk
attr title  "packets received OK, count"
scalar MultiCell.pgw.ppp[1].ppp 	rxPkOk:sum(packetBytes) 	0
attr interpolationmode  none
attr source  rxPkOk
attr title  "packets received OK, sum(packetBytes)"
scalar MultiCell.pgw.ppp[1].ppp 	txPk:count 	0
attr interpolationmode  none
attr source  packetSentToLower
attr title  "packets transmitted, count"
scalar MultiCell.pgw.ppp[1].ppp 	txPk:sum(packetBytes) 	0
attr interpolationmode  none
attr source  packetSentToLower
attr title  "packets transmitted, sum(packetBytes)"
scalar MultiCell.pgw.ppp[1].ppp 	rcvdPkFromHL:count 	0
attr interpolationmode  none
attr source  packetReceivedFromUpper
attr title  "packets received from higher layer, count"
scalar MultiCell.pgw.ppp[1].ppp 	rcvdPkFromHL:sum(packetBytes) 	0
attr interpolationmode  none
attr source  packetReceivedFromUpper
attr title  "packets received from higher layer, sum(packetBytes)"
scalar MultiCell.pgw.ppp[1].ppp 	passedUpPk:count 	0
attr interpolationmode  none
attr source  packetSentToUpper
attr title  "packets passed to higher layer, count"
scalar MultiCell.pgw.ppp[1].ppp 	passedUpPk:sum(packetBytes) 	0
attr interpolationmode  none
attr source  packetSentToUpper
attr title  "packets passed to higher layer, sum(packetBytes)"
statistic MultiCell.pgw.pppInterface.queue 	queueingTime:histogram
field count 0
field mean -nan
field stddev -nan
field sum 0
field sqrsum 0
field min -nan
field max -nan
attr interpolationmode  none
attr title  "queueing time, histogram"
bin	-INF	0
bin	-0.5	0
bin	-0.46666666666667	0
bin	-0.43333333333333	0
bin	-0.4	0
bin	-0.36666666666667	0
bin	-0.33333333333333	0
bin	-0.3	0
bin	-0.26666666666667	0
bin	-0.23333333333333	0
bin	-0.2	0
bin	-0.16666666666667	0
bin	-0.13333333333333	0
bin	-0.1	0
bin	-0.066666666666667	0
bin	-0.033333333333333	0
bin	0	0
bin	0.033333333333333	0
bin	0.066666666666667	0
bin	0.1	0
bin	0.13333333333333	0
bin	0.16666666666667	0
bin	0.2	0
bin	0.23333333333333	0
bin	0.26666666666667	0
bin	0.3	0
bin	0.33333333333333	0
bin	0.36666666666667	0
bin	0.4	0
bin	0.43333333333333	0
bin	0.46666666666667	0
bin	0.5	0
scalar MultiCell.pgw.pppInterface.queue 	dropPk:count 	0
attr interpolationmode  none
attr source  dropPkByQueue
attr title  "dropped packets, count"
scalar MultiCell.pgw.pppInterface.queue 	dropPk:sum(packetBytes) 	0
attr interpolationmode  none
attr source  dropPkByQueue
attr title  "dropped packets, sum(packetBytes)"
scalar MultiCell.pgw.pppInterface.queue 	queueLength:max 	0
attr interpolationmode  sample-hold
attr title  "queue length, max"
scalar MultiCell.pgw.pppInterface.queue 	queueLength:timeavg 	-nan
attr interpolationmode  sample-hold
attr title  "queue length, timeavg"
scalar MultiCell.pgw.pppInterface.queue 	rcvdPk:count 	0
attr interpolationmode  none
attr title  "received packets, count"
scalar MultiCell.pgw.pppInterface.queue 	rcvdPk:sum(packetBytes) 	0
attr interpolationmode  none
attr title  "received packets, sum(packetBytes)"
scalar MultiCell.pgw.pppInterface.ppp 	txState:timeavg 	-nan
attr interpolationmode  sample-hold
attr title  "tx state, timeavg"
scalar MultiCell.pgw.pppInterface.ppp 	droppedPkIfaceDown:count 	0
attr interpolationmode  none
attr source  dropPkIfaceDown
attr title  "packets dropped/interface down, count"
scalar MultiCell.pgw.pppInterface.ppp 	droppedPkIfaceDown:sum(packetBytes) 	0
attr interpolationmode  none
attr source  dropPkIfaceDown
attr title  "packets dropped/interface down, sum(packetBytes)"
scalar MultiCell.pgw.pppInterface.ppp 	droppedPkBitError:count 	0
attr interpolationmode  none
attr source  dropPkBitError
attr title  "packets dropped/bit error, count"
scalar MultiCell.pgw.pppInterface.ppp 	droppedPkBitError:sum(packetBytes) 	0
attr interpolationmode  none
attr source  dropPkBitError
attr title  "packets dropped/bit error, sum(packetBytes)"
scalar MultiCell.pgw.pppInterface.ppp 	rxPkOk:count 	0
attr interpolationmode  none
attr source  rxPkOk
attr title  "packets received OK, count"
scalar MultiCell.pgw.pppInterface.ppp 	rxPkOk:sum(packetBytes) 	0
attr interpolationmode  none
attr source  rxPkOk
attr title  "packets received OK, sum(packetBytes)"
scalar MultiCell.pgw.pppInterface.ppp 	txPk:count 	0
attr interpolationmode  none
attr source  packetSentToLower
attr title  "packets transmitted, count"
scalar MultiCell.pgw.pppInterface.ppp 	txPk:sum(packetBytes) 	0
attr interpolationmode  none
attr source  packetSentToLower
attr title  "packets transmitted, sum(packetBytes)"
scalar MultiCell.pgw.pppInterface.ppp 	rcvdPkFromHL:count 	0
attr interpolationmode  none
attr source  packetReceivedFromUpper
attr title  "packets received from higher layer, count"
scalar MultiCell.pgw.pppInterface.ppp 	rcvdPkFromHL:sum(packetBytes) 	0
attr interpolationmode  none
attr source  packetReceivedFromUpper
attr title  "packets received from higher layer, sum(packetBytes)"
scalar MultiCell.pgw.pppInterface.ppp 	passedUpPk:count 	0
attr interpolationmode  none
attr source  packetSentToUpper
attr title  "packets passed to higher layer, count"
scalar MultiCell.pgw.pppInterface.ppp 	passedUpPk:sum(packetBytes) 	0
attr interpolationmode  none
attr source  packetSentToUpper
attr title  "packets passed to higher layer, sum(packetBytes)"
scalar MultiCell.pgw.udp 	droppedPkBadChecksum:count 	0
attr interpolationmode  none
attr title  "packets dropped (checksum error), count"
scalar MultiCell.pgw.udp 	droppedPkWrongPort:count 	0
attr interpolationmode  none
attr title  "packets dropped (wrong port), count"
scalar MultiCell.pgw.udp 	passedUpPk:count 	0
attr interpolationmode  none
attr title  "packets passed up, count"
scalar MultiCell.pgw.udp 	rcvdPk:count 	0
attr interpolationmode  none
attr source  rcvdPk
attr title  "packets received, count"
scalar MultiCell.pgw.udp 	rcvdPk:sum(packetBytes) 	0
attr interpolationmode  none
attr source  rcvdPk
attr title  "packets received, sum(packetBytes)"
scalar MultiCell.pgw.udp 	sentPk:count 	0
attr interpolationmode  none
attr source  sentPk
attr title  "packets sent, count"
scalar MultiCell.pgw.udp 	sentPk:sum(packetBytes) 	0
attr interpolationmode  none
attr source  sentPk
attr title  "packets sent, sum(packetBytes)"
scalar MultiCell.router.networkLayer.arp 	failedARPResolution:count 	0
attr title  "ARP failed resolutions, count"
scalar MultiCell.router.networkLayer.arp 	completedARPResolution:count 	0
attr title  "ARP completed resolutions, count"
scalar MultiCell.router.networkLayer.arp 	initiatedARPResolution:count 	0
attr title  "ARP initiated resolutions, count"
scalar MultiCell.router.networkLayer.arp 	sentReply:count 	0
attr title  "ARP replies sent, count"
scalar MultiCell.router.networkLayer.arp 	sentReq:count 	0
attr title  "ARP request sent, count"
scalar MultiCell.router.lo0.lo 	droppedPkBitError:count 	0
attr interpolationmode  none
attr source  dropPkBitError
attr title  "packets dropped/bit error, count"
scalar MultiCell.router.lo0.lo 	droppedPkBitError:sum(packetBytes) 	0
attr interpolationmode  none
attr source  dropPkBitError
attr title  "packets dropped/bit error, sum(packetBytes)"
scalar MultiCell.router.lo0.lo 	rcvdPkFromHL:count 	0
attr interpolationmode  none
attr source  packetReceivedFromUpper
attr title  "packets received from higher layer, count"
scalar MultiCell.router.lo0.lo 	rcvdPkFromHL:sum(packetBytes) 	0
attr interpolationmode  none
attr source  packetReceivedFromUpper
attr title  "packets received from higher layer, sum(packetBytes)"
scalar MultiCell.router.lo0.lo 	passedUpPk:count 	0
attr interpolationmode  none
attr source  packetSentToUpper
attr title  "packets passed to higher layer, count"
scalar MultiCell.router.lo0.lo 	passedUpPk:sum(packetBytes) 	0
attr interpolationmode  none
attr source  packetSentToUpper
attr title  "packets passed to higher layer, sum(packetBytes)"
statistic MultiCell.router.ppp[0].queue 	queueingTime:histogram
field count 0
field mean -nan
field stddev -nan
field sum 0
field sqrsum 0
field min -nan
field max -nan
attr interpolationmode  none
attr title  "queueing time, histogram"
bin	-INF	0
bin	-0.5	0
bin	-0.46666666666667	0
bin	-0.43333333333333	0
bin	-0.4	0
bin	-0.36666666666667	0
bin	-0.33333333333333	0
bin	-0.3	0
bin	-0.26666666666667	0
bin	-0.23333333333333	0
bin	-0.2	0
bin	-0.16666666666667	0
bin	-0.13333333333333	0
bin	-0.1	0
bin	-0.066666666666667	0
bin	-0.033333333333333	0
bin	0	0
bin	0.033333333333333	0
bin	0.066666666666667	0
bin	0.1	0
bin	0.13333333333333	0
bin	0.16666666666667	0
bin	0.2	0
bin	0.23333333333333	0
bin	0.26666666666667	0
bin	0.3	0
bin	0.33333333333333	0
bin	0.36666666666667	0
bin	0.4	0
bin	0.43333333333333	0
bin	0.46666666666667	0
bin	0.5	0
scalar MultiCell.router.ppp[0].queue 	dropPk:count 	0
attr interpolationmode  none
attr source  dropPkByQueue
attr title  "dropped packets, count"
scalar MultiCell.router.ppp[0].queue 	dropPk:sum(packetBytes) 	0
attr interpolationmode  none
attr source  dropPkByQueue
attr title  "dropped packets, sum(packetBytes)"
scalar MultiCell.router.ppp[0].queue 	queueLength:max 	0
attr interpolationmode  sample-hold
attr title  "queue length, max"
scalar MultiCell.router.ppp[0].queue 	queueLength:timeavg 	-nan
attr interpolationmode  sample-hold
attr title  "queue length, timeavg"
scalar MultiCell.router.ppp[0].queue 	rcvdPk:count 	0
attr interpolationmode  none
attr title  "received packets, count"
scalar MultiCell.router.ppp[0].queue 	rcvdPk:sum(packetBytes) 	0
attr interpolationmode  none
attr title  "received packets, sum(packetBytes)"
scalar MultiCell.router.ppp[0].ppp 	txState:timeavg 	-nan
attr interpolationmode  sample-hold
attr title  "tx state, timeavg"
scalar MultiCell.router.ppp[0].ppp 	droppedPkIfaceDown:count 	0
attr interpolationmode  none
attr source  dropPkIfaceDown
attr title  "packets dropped/interface down, count"
scalar MultiCell.router.ppp[0].ppp 	droppedPkIfaceDown:sum(packetBytes) 	0
attr interpolationmode  none
attr source  dropPkIfaceDown
attr title  "packets dropped/interface down, sum(packetBytes)"
scalar MultiCell.router.ppp[0].ppp 	droppedPkBitError:count 	0
attr interpolationmode  none
attr source  dropPkBitError
attr title  "packets dropped/bit error, count"
scalar MultiCell.router.ppp[0].ppp 	droppedPkBitError:sum(packetBytes) 	0
attr interpolationmode  none
attr source  dropPkBitError
attr title  "packets dropped/bit error, sum(packetBytes)"
scalar MultiCell.router.ppp[0].ppp 	rxPkOk:count 	0
attr interpolationmode  none
attr source  rxPkOk
attr title  "packets received OK, count"
scalar MultiCell.router.ppp[0].ppp 	rxPkOk:sum(packetBytes) 	0
attr interpolationmode  none
attr source  rxPkOk
attr title  "packets received OK, sum(packetBytes)"
scalar MultiCell.router.ppp[0].ppp 	txPk:count 	0
attr interpolationmode  none
attr source  packetSentToLower
attr title  "packets transmitted, count"
scalar MultiCell.router.ppp[0].ppp 	txPk:sum(packetBytes) 	0
attr interpolationmode  none
attr source  packetSentToLower
attr title  "packets transmitted, sum(packetBytes)"
scalar MultiCell.router.ppp[0].ppp 	rcvdPkFromHL:count 	0
attr interpolationmode  none
attr source  packetReceivedFromUpper
attr title  "packets received from higher layer, count"
scalar MultiCell.router.ppp[0].ppp 	rcvdPkFromHL:sum(packetBytes) 	0
attr interpolationmode  none
attr source  packetReceivedFromUpper
attr title  "packets received from higher layer, sum(packetBytes)"
scalar MultiCell.router.ppp[0].ppp 	passedUpPk:count 	0
attr interpolationmode  none
attr source  packetSentToUpper
attr title  "packets passed to higher layer, count"
scalar MultiCell.router.ppp[0].ppp 	passedUpPk:sum(packetBytes) 	0
attr interpolationmode  none
attr source  packetSentToUpper
attr title  "packets passed to higher layer, sum(packetBytes)"
statistic MultiCell.router.ppp[1].queue 	queueingTime:histogram
field count 0
field mean -nan
field stddev -nan
field sum 0
field sqrsum 0
field min -nan
field max -nan
attr interpolationmode  none
attr title  "queueing time, histogram"
bin	-INF	0
bin	-0.5	0
bin	-0.46666666666667	0
bin	-0.43333333333333	0
bin	-0.4	0
bin	-0.36666666666667	0
bin	-0.33333333333333	0
bin	-0.3	0
bin	-0.26666666666667	0
bin	-0.23333333333333	0
bin	-0.2	0
bin	-0.16666666666667	0
bin	-0.13333333333333	0
bin	-0.1	0
bin	-0.066666666666667	0
bin	-0.033333333333333	0
bin	0	0
bin	0.033333333333333	0
bin	0.066666666666667	0
bin	0.1	0
bin	0.13333333333333	0
bin	0.16666666666667	0
bin	0.2	0
bin	0.23333333333333	0
bin	0.26666666666667	0
bin	0.3	0
bin	0.33333333333333	0
bin	0.36666666666667	0
bin	0.4	0
bin	0.43333333333333	0
bin	0.46666666666667	0
bin	0.5	0
scalar MultiCell.router.ppp[1].queue 	dropPk:count 	0
attr interpolationmode  none
attr source  dropPkByQueue
attr title  "dropped packets, count"
scalar MultiCell.router.ppp[1].queue 	dropPk:sum(packetBytes) 	0
attr interpolationmode  none
attr source  dropPkByQueue
attr title  "dropped packets, sum(packetBytes)"
scalar MultiCell.router.ppp[1].queue 	queueLength:max 	0
attr interpolationmode  sample-hold
attr title  "queue length, max"
scalar MultiCell.router.ppp[1].queue 	queueLength:timeavg 	-nan
attr interpolationmode  sample-hold
attr title  "queue length, timeavg"
scalar MultiCell.router.ppp[1].queue 	rcvdPk:count 	0
attr interpolationmode  none
attr title  "received packets, count"
scalar MultiCell.router.ppp[1].queue 	rcvdPk:sum(packetBytes) 	0
attr interpolationmode  none
attr title  "received packets, sum(packetBytes)"
scalar MultiCell.router.ppp[1].ppp 	txState:timeavg 	-nan
attr interpolationmode  sample-hold
attr title  "tx state, timeavg"
scalar MultiCell.router.ppp[1].ppp 	droppedPkIfaceDown:count 	0
attr interpolationmode  none
attr source  dropPkIfaceDown
attr title  "packets dropped/interface down, count"
scalar MultiCell.router.ppp[1].ppp 	droppedPkIfaceDown:sum(packetBytes) 	0
attr interpolationmode  none
attr source  dropPkIfaceDown
attr title  "packets dropped/interface down, sum(packetBytes)"
scalar MultiCell.router.ppp[1].ppp 	droppedPkBitError:count 	0
attr interpolationmode  none
attr source  dropPkBitError
attr title  "packets dropped/bit error, count"
scalar MultiCell.router.ppp[1].ppp 	droppedPkBitError:sum(packetBytes) 	0
attr interpolationmode  none
attr source  dropPkBitError
attr title  "packets dropped/bit error, sum(packetBytes)"
scalar MultiCell.router.ppp[1].ppp 	rxPkOk:count 	0
attr interpolationmode  none
attr source  rxPkOk
attr title  "packets received OK, count"
scalar MultiCell.router.ppp[1].ppp 	rxPkOk:sum(packetBytes) 	0
attr interpolationmode  none
attr source  rxPkOk
attr title  "packets received OK, sum(packetBytes)"
scalar MultiCell.router.ppp[1].ppp 	txPk:count 	0
attr interpolationmode  none
attr source  packetSentToLower
attr title  "packets transmitted, count"
scalar MultiCell.router.ppp[1].ppp 	txPk:sum(packetBytes) 	0
attr interpolationmode  none
attr source  packetSentToLower
attr title  "packets transmitted, sum(packetBytes)"
scalar MultiCell.router.ppp[1].ppp 	rcvdPkFromHL:count 	0
attr interpolationmode  none
attr source  packetReceivedFromUpper
attr title  "packets received from higher layer, count"
scalar MultiCell.router.ppp[1].ppp 	rcvdPkFromHL:sum(packetBytes) 	0
attr interpolationmode  none
attr source  packetReceivedFromUpper
attr title  "packets received from higher layer, sum(packetBytes)"
scalar MultiCell.router.ppp[1].ppp 	passedUpPk:count 	0
attr interpolationmode  none
attr source  packetSentToUpper
attr title  "packets passed to higher layer, count"
scalar MultiCell.router.ppp[1].ppp 	passedUpPk:sum(packetBytes) 	0
attr interpolationmode  none
attr source  packetSentToUpper
attr title  "packets passed to higher layer, sum(packetBytes)"
scalar MultiCell.eNodeB1.lteNic.pdcpRrc 	sentPacketToLowerLayer:count 	0
attr interpolationmode  none
attr source  sentPacketToLowerLayer
scalar MultiCell.eNodeB1.lteNic.pdcpRrc 	sentPacketToLowerLayer:sum(packetBytes) 	0
attr interpolationmode  none
attr source  sentPacketToLowerLayer
scalar MultiCell.eNodeB1.lteNic.pdcpRrc 	sentPacketToUpperLayer:count 	0
attr interpolationmode  none
attr source  sentPacketToUpperLayer
scalar MultiCell.eNodeB1.lteNic.pdcpRrc 	sentPacketToUpperLayer:sum(packetBytes) 	0
attr interpolationmode  none
attr source  sentPacketToUpperLayer
scalar MultiCell.eNodeB1.lteNic.pdcpRrc 	receivedPacketFromLowerLayer:count 	0
attr interpolationmode  none
attr source  receivedPacketFromLowerLayer
scalar MultiCell.eNodeB1.lteNic.pdcpRrc 	receivedPacketFromLowerLayer:sum(packetBytes) 	0
attr interpolationmode  none
attr source  receivedPacketFromLowerLayer
scalar MultiCell.eNodeB1.lteNic.pdcpRrc 	receivedPacketFromUpperLayer:count 	0
attr interpolationmode  none
attr source  receivedPacketFromUpperLayer
scalar MultiCell.eNodeB1.lteNic.pdcpRrc 	receivedPacketFromUpperLayer:sum(packetBytes) 	0
attr interpolationmode  none
attr source  receivedPacketFromUpperLayer
scalar MultiCell.eNodeB1.lteNic.pdcpRrc 	pdcpdrop3:mean 	-nan
attr source  pdcpdrop3
attr title  "Drop at PDCP layer 3, mean"
attr unit  ""
scalar MultiCell.eNodeB1.lteNic.pdcpRrc 	pdcpdrop2:mean 	-nan
attr source  pdcpdrop2
attr title  "Drop at PDCP layer 2, mean"
attr unit  ""
scalar MultiCell.eNodeB1.lteNic.pdcpRrc 	pdcpdrop1:mean 	-nan
attr source  pdcpdrop1
attr title  "Drop at PDCP layer 1, mean"
attr unit  ""
scalar MultiCell.eNodeB1.lteNic.pdcpRrc 	pdcpdrop0:mean 	-nan
attr source  pdcpdrop0
attr title  "Drop at PDCP layer 0, mean"
attr unit  ""
scalar MultiCell.eNodeB1.lteNic.rlc.um 	rlcPduPacketLossD2D:mean 	-nan
attr source  rlcPduPacketLossD2D
attr title  "rlc Packet Loss, mean"
attr unit  ""
scalar MultiCell.eNodeB1.lteNic.rlc.um 	rlcPduPacketLossDl:mean 	-nan
attr source  rlcPduPacketLossDl
attr title  "rlc Packet Loss, mean"
attr unit  ""
scalar MultiCell.eNodeB1.lteNic.rlc.um 	rlcPduPacketLossUl:mean 	-nan
attr source  rlcPduPacketLossUl
attr title  "rlc Packet Loss, mean"
attr unit  ""
scalar MultiCell.eNodeB1.lteNic.rlc.um 	rlcPacketLossTotal:mean 	-nan
attr source  rlcPacketLossTotal
attr title  "rlc Packet Loss, mean"
attr unit  ""
scalar MultiCell.eNodeB1.lteNic.rlc.um 	rlcPacketLossD2D:mean 	-nan
attr source  rlcPacketLossD2D
attr title  "rlc Packet Loss, mean"
attr unit  ""
scalar MultiCell.eNodeB1.lteNic.rlc.um 	rlcPacketLossDl:mean 	-nan
attr source  rlcPacketLossDl
attr title  "rlc Packet Loss, mean"
attr unit  ""
scalar MultiCell.eNodeB1.lteNic.rlc.um 	rlcPacketLossUl:mean 	-nan
attr source  rlcPacketLossUl
attr title  "rlc Packet Loss, mean"
attr unit  ""
scalar MultiCell.eNodeB1.lteNic.rlc.um 	rlcCellPacketLossD2D:mean 	-nan
attr source  rlcCellPacketLossD2D
attr title  "rlc Cell Packet Loss, mean"
attr unit  ""
scalar MultiCell.eNodeB1.lteNic.rlc.um 	rlcCellPacketLossUl:mean 	-nan
attr source  rlcCellPacketLossUl
attr title  "rlc Cell Packet Loss, mean"
attr unit  ""
scalar MultiCell.eNodeB1.lteNic.rlc.um 	rlcCellPacketLossDl:mean 	-nan
attr source  rlcCellPacketLossDl
attr title  "rlc Cell Packet Loss, mean"
attr unit  ""
scalar MultiCell.eNodeB1.lteNic.rlc.um 	rlcCellThroughputD2D:mean 	-nan
attr source  rlcCellThroughputD2D
attr title  "Cell Throughput at the rlc layer D2D, mean"
attr unit  Bps
scalar MultiCell.eNodeB1.lteNic.rlc.um 	rlcCellThroughputDl:mean 	-nan
attr source  rlcCellThroughputDl
attr title  "Cell Throughput at the rlc layer DL, mean"
attr unit  Bps
scalar MultiCell.eNodeB1.lteNic.rlc.um 	rlcCellThroughputUl:mean 	-nan
attr source  rlcCellThroughputUl
attr title  "Cell Throughput at the rlc layer UL, mean"
attr unit  Bps
scalar MultiCell.eNodeB1.lteNic.rlc.um 	rlcPduThroughputD2D:mean 	-nan
attr source  rlcPduThroughputD2D
attr title  "Throughput at the rlc layer D2D, mean"
attr unit  Bps
scalar MultiCell.eNodeB1.lteNic.rlc.um 	rlcPduDelayD2D:mean 	-nan
attr source  rlcPduDelayD2D
attr title  "Delay at the rlc layer D2D, mean"
attr unit  s
scalar MultiCell.eNodeB1.lteNic.rlc.um 	rlcPduThroughputUl:mean 	-nan
attr source  rlcPduThroughputUl
attr title  "Throughput at the rlc layer UL, mean"
attr unit  Bps
scalar MultiCell.eNodeB1.lteNic.rlc.um 	rlcPduDelayUl:mean 	-nan
attr source  rlcPduDelayUl
attr title  "Delay at the rlc layer UL, mean"
attr unit  s
scalar MultiCell.eNodeB1.lteNic.rlc.um 	rlcPduThroughputDl:mean 	-nan
attr source  rlcPduThroughputDl
attr title  "Throughput at the rlc layer DL, mean"
attr unit  Bps
scalar MultiCell.eNodeB1.lteNic.rlc.um 	rlcPduDelayDl:mean 	-nan
attr source  rlcPduDelayDl
attr title  "Delay at the rlc layer UL, mean"
attr unit  s
scalar MultiCell.eNodeB1.lteNic.rlc.um 	rlcThroughputD2D:mean 	-nan
attr source  rlcThroughputD2D
attr title  "Throughput at the rlc layer D2D, mean"
attr unit  Bps
scalar MultiCell.eNodeB1.lteNic.rlc.um 	rlcDelayD2D:mean 	-nan
attr source  rlcDelayD2D
attr title  "Delay at the rlc layer D2D, mean"
attr unit  s
scalar MultiCell.eNodeB1.lteNic.rlc.um 	rlcThroughputUl:mean 	-nan
attr source  rlcThroughputUl
attr title  "Throughput at the rlc layer UL, mean"
attr unit  Bps
scalar MultiCell.eNodeB1.lteNic.rlc.um 	rlcDelayUl:mean 	-nan
attr source  rlcDelayUl
attr title  "Delay at the rlc layer UL, mean"
attr unit  s
scalar MultiCell.eNodeB1.lteNic.rlc.um 	rlcThroughputDl:mean 	-nan
attr source  rlcThroughputDl
attr title  "Throughput at the rlc layer DL, mean"
attr unit  Bps
scalar MultiCell.eNodeB1.lteNic.rlc.um 	rlcDelayDl:mean 	-nan
attr source  rlcDelayDl
attr title  "Delay at the rlc layer UL, mean"
attr unit  s
scalar MultiCell.eNodeB1.lteNic.rlc.am 	rlcPduPacketLossD2D:mean 	-nan
attr source  rlcPduPacketLossD2D
attr title  "rlc Packet Loss, mean"
attr unit  ""
scalar MultiCell.eNodeB1.lteNic.rlc.am 	rlcPduPacketLossDl:mean 	-nan
attr source  rlcPduPacketLossDl
attr title  "rlc Packet Loss, mean"
attr unit  ""
scalar MultiCell.eNodeB1.lteNic.rlc.am 	rlcPduPacketLossUl:mean 	-nan
attr source  rlcPduPacketLossUl
attr title  "rlc Packet Loss, mean"
attr unit  ""
scalar MultiCell.eNodeB1.lteNic.rlc.am 	rlcPacketLossTotal:mean 	-nan
attr source  rlcPacketLossTotal
attr title  "rlc Packet Loss, mean"
attr unit  ""
scalar MultiCell.eNodeB1.lteNic.rlc.am 	rlcPacketLossD2D:mean 	-nan
attr source  rlcPacketLossD2D
attr title  "rlc Packet Loss, mean"
attr unit  ""
scalar MultiCell.eNodeB1.lteNic.rlc.am 	rlcPacketLossDl:mean 	-nan
attr source  rlcPacketLossDl
attr title  "rlc Packet Loss, mean"
attr unit  ""
scalar MultiCell.eNodeB1.lteNic.rlc.am 	rlcPacketLossUl:mean 	-nan
attr source  rlcPacketLossUl
attr title  "rlc Packet Loss, mean"
attr unit  ""
scalar MultiCell.eNodeB1.lteNic.rlc.am 	rlcCellPacketLossD2D:mean 	-nan
attr source  rlcCellPacketLossD2D
attr title  "rlc Cell Packet Loss, mean"
attr unit  ""
scalar MultiCell.eNodeB1.lteNic.rlc.am 	rlcCellPacketLossUl:mean 	-nan
attr source  rlcCellPacketLossUl
attr title  "rlc Cell Packet Loss, mean"
attr unit  ""
scalar MultiCell.eNodeB1.lteNic.rlc.am 	rlcCellPacketLossDl:mean 	-nan
attr source  rlcCellPacketLossDl
attr title  "rlc Cell Packet Loss, mean"
attr unit  ""
scalar MultiCell.eNodeB1.lteNic.rlc.am 	rlcCellThroughputD2D:mean 	-nan
attr source  rlcCellThroughputD2D
attr title  "Cell Throughput at the rlc layer D2D, mean"
attr unit  Bps
scalar MultiCell.eNodeB1.lteNic.rlc.am 	rlcCellThroughputDl:mean 	-nan
attr source  rlcCellThroughputDl
attr title  "Cell Throughput at the rlc layer DL, mean"
attr unit  Bps
scalar MultiCell.eNodeB1.lteNic.rlc.am 	rlcCellThroughputUl:mean 	-nan
attr source  rlcCellThroughputUl
attr title  "Cell Throughput at the rlc layer UL, mean"
attr unit  Bps
scalar MultiCell.eNodeB1.lteNic.rlc.am 	rlcPduThroughputD2D:mean 	-nan
attr source  rlcPduThroughputD2D
attr title  "Throughput at the rlc layer D2D, mean"
attr unit  Bps
scalar MultiCell.eNodeB1.lteNic.rlc.am 	rlcPduDelayD2D:mean 	-nan
attr source  rlcPduDelayD2D
attr title  "Delay at the rlc layer D2D, mean"
attr unit  s
scalar MultiCell.eNodeB1.lteNic.rlc.am 	rlcPduThroughputUl:mean 	-nan
attr source  rlcPduThroughputUl
attr title  "Throughput at the rlc layer UL, mean"
attr unit  Bps
scalar MultiCell.eNodeB1.lteNic.rlc.am 	rlcPduDelayUl:mean 	-nan
attr source  rlcPduDelayUl
attr title  "Delay at the rlc layer UL, mean"
attr unit  s
scalar MultiCell.eNodeB1.lteNic.rlc.am 	rlcPduThroughputDl:mean 	-nan
attr source  rlcPduThroughputDl
attr title  "Throughput at the rlc layer DL, mean"
attr unit  Bps
scalar MultiCell.eNodeB1.lteNic.rlc.am 	rlcPduDelayDl:mean 	-nan
attr source  rlcPduDelayDl
attr title  "Delay at the rlc layer UL, mean"
attr unit  s
scalar MultiCell.eNodeB1.lteNic.rlc.am 	rlcThroughputD2D:mean 	-nan
attr source  rlcThroughputD2D
attr title  "Throughput at the rlc layer D2D, mean"
attr unit  Bps
scalar MultiCell.eNodeB1.lteNic.rlc.am 	rlcDelayD2D:mean 	-nan
attr source  rlcDelayD2D
attr title  "Delay at the rlc layer D2D, mean"
attr unit  s
scalar MultiCell.eNodeB1.lteNic.rlc.am 	rlcThroughputUl:mean 	-nan
attr source  rlcThroughputUl
attr title  "Throughput at the rlc layer UL, mean"
attr unit  Bps
scalar MultiCell.eNodeB1.lteNic.rlc.am 	rlcDelayUl:mean 	-nan
attr source  rlcDelayUl
attr title  "Delay at the rlc layer UL, mean"
attr unit  s
scalar MultiCell.eNodeB1.lteNic.rlc.am 	rlcThroughputDl:mean 	-nan
attr source  rlcThroughputDl
attr title  "Throughput at the rlc layer DL, mean"
attr unit  Bps
scalar MultiCell.eNodeB1.lteNic.rlc.am 	rlcDelayDl:mean 	-nan
attr source  rlcDelayDl
attr title  "Delay at the rlc layer UL, mean"
attr unit  s
scalar MultiCell.eNodeB1.lteNic.mac 	rb_9:mean 	-nan
attr source  rb_9
attr unit  ratio
scalar MultiCell.eNodeB1.lteNic.mac 	rb_8c:mean 	-nan
attr source  rb_8c
attr unit  ratio
scalar MultiCell.eNodeB1.lteNic.mac 	rb_7c:mean 	-nan
attr source  rb_7c
attr unit  ratio
scalar MultiCell.eNodeB1.lteNic.mac 	rb_6c:mean 	-nan
attr source  rb_6c
attr unit  ratio
scalar MultiCell.eNodeB1.lteNic.mac 	rb_8b:mean 	-nan
attr source  rb_8b
attr unit  ratio
scalar MultiCell.eNodeB1.lteNic.mac 	rb_7b:mean 	-nan
attr source  rb_7b
attr unit  ratio
scalar MultiCell.eNodeB1.lteNic.mac 	rb_6b:mean 	-nan
attr source  rb_6b
attr unit  ratio
scalar MultiCell.eNodeB1.lteNic.mac 	rb_8a:mean 	-nan
attr source  rb_8a
attr unit  ratio
scalar MultiCell.eNodeB1.lteNic.mac 	rb_7a:mean 	-nan
attr source  rb_7a
attr unit  ratio
scalar MultiCell.eNodeB1.lteNic.mac 	rb_6a:mean 	-nan
attr source  rb_6a
attr unit  ratio
scalar MultiCell.eNodeB1.lteNic.mac 	rb_5:mean 	-nan
attr source  rb_5
attr unit  ratio
scalar MultiCell.eNodeB1.lteNic.mac 	rb_4:mean 	-nan
attr source  rb_4
attr unit  ratio
scalar MultiCell.eNodeB1.lteNic.mac 	rb_3c:mean 	-nan
attr source  rb_3c
attr unit  ratio
scalar MultiCell.eNodeB1.lteNic.mac 	rb_2c:mean 	-nan
attr source  rb_2c
attr unit  ratio
scalar MultiCell.eNodeB1.lteNic.mac 	rb_1c:mean 	-nan
attr source  rb_1c
attr unit  ratio
scalar MultiCell.eNodeB1.lteNic.mac 	rb_3b:mean 	-nan
attr source  rb_3b
attr unit  ratio
scalar MultiCell.eNodeB1.lteNic.mac 	rb_2b:mean 	-nan
attr source  rb_2b
attr unit  ratio
scalar MultiCell.eNodeB1.lteNic.mac 	rb_1b:mean 	-nan
attr source  rb_1b
attr unit  ratio
scalar MultiCell.eNodeB1.lteNic.mac 	rb_3a:mean 	-nan
attr source  rb_3a
attr unit  ratio
scalar MultiCell.eNodeB1.lteNic.mac 	rb_2a:mean 	-nan
attr source  rb_2a
attr unit  ratio
scalar MultiCell.eNodeB1.lteNic.mac 	rb_1a:mean 	-nan
attr source  rb_1a
attr unit  ratio
scalar MultiCell.eNodeB1.lteNic.mac 	rb_0:mean 	-nan
attr source  rb_0
attr unit  ratio
scalar MultiCell.eNodeB1.lteNic.mac 	prf_9:mean 	-nan
attr source  prf_9
attr unit  ratio
scalar MultiCell.eNodeB1.lteNic.mac 	prf_8c:mean 	-nan
attr source  prf_8c
attr unit  ratio
scalar MultiCell.eNodeB1.lteNic.mac 	prf_7c:mean 	-nan
attr source  prf_7c
attr unit  ratio
scalar MultiCell.eNodeB1.lteNic.mac 	prf_6c:mean 	-nan
attr source  prf_6c
attr unit  ratio
scalar MultiCell.eNodeB1.lteNic.mac 	prf_8b:mean 	-nan
attr source  prf_8b
attr unit  ratio
scalar MultiCell.eNodeB1.lteNic.mac 	prf_7b:mean 	-nan
attr source  prf_7b
attr unit  ratio
scalar MultiCell.eNodeB1.lteNic.mac 	prf_6b:mean 	-nan
attr source  prf_6b
attr unit  ratio
scalar MultiCell.eNodeB1.lteNic.mac 	prf_8a:mean 	-nan
attr source  prf_8a
attr unit  ratio
scalar MultiCell.eNodeB1.lteNic.mac 	prf_7a:mean 	-nan
attr source  prf_7a
attr unit  ratio
scalar MultiCell.eNodeB1.lteNic.mac 	prf_6a:mean 	-nan
attr source  prf_6a
attr unit  ratio
scalar MultiCell.eNodeB1.lteNic.mac 	prf_5:mean 	-nan
attr source  prf_5
attr unit  ratio
scalar MultiCell.eNodeB1.lteNic.mac 	prf_4:mean 	-nan
attr source  prf_4
attr unit  ratio
scalar MultiCell.eNodeB1.lteNic.mac 	prf_3c:mean 	-nan
attr source  prf_3c
attr unit  ratio
scalar MultiCell.eNodeB1.lteNic.mac 	prf_2c:mean 	-nan
attr source  prf_2c
attr unit  ratio
scalar MultiCell.eNodeB1.lteNic.mac 	prf_1c:mean 	-nan
attr source  prf_1c
attr unit  ratio
scalar MultiCell.eNodeB1.lteNic.mac 	prf_3b:mean 	-nan
attr source  prf_3b
attr unit  ratio
scalar MultiCell.eNodeB1.lteNic.mac 	prf_2b:mean 	-nan
attr source  prf_2b
attr unit  ratio
scalar MultiCell.eNodeB1.lteNic.mac 	prf_1b:mean 	-nan
attr source  prf_1b
attr unit  ratio
scalar MultiCell.eNodeB1.lteNic.mac 	prf_3a:mean 	-nan
attr source  prf_3a
attr unit  ratio
scalar MultiCell.eNodeB1.lteNic.mac 	prf_2a:mean 	-nan
attr source  prf_2a
attr unit  ratio
scalar MultiCell.eNodeB1.lteNic.mac 	prf_1a:mean 	-nan
attr source  prf_1a
attr unit  ratio
scalar MultiCell.eNodeB1.lteNic.mac 	prf_0:mean 	-nan
attr source  prf_0
attr unit  ratio
scalar MultiCell.eNodeB1.lteNic.mac 	wastedFrames:mean 	-nan
attr source  wastedFrames
attr title  "D1 algo, ratio of activated frame with no traffic to serve, mean"
attr unit  ratio
scalar MultiCell.eNodeB1.lteNic.mac 	sleepFrames:mean 	-nan
attr source  sleepFrames
attr title  "D1 algo, ratio of sleep frame, mean"
attr unit  ratio
scalar MultiCell.eNodeB1.lteNic.mac 	activatedFrames:mean 	-nan
attr source  activatedFrames
attr title  "D1 algo, ratio of activated frame, mean"
attr unit  ratio
scalar MultiCell.eNodeB1.lteNic.mac 	depletedPowerUl:mean 	-nan
attr source  depletedPowerUl
attr title  "LTE ENodeB depleted power Ul, mean"
attr unit  watts
scalar MultiCell.eNodeB1.lteNic.mac 	depletedPowerDl:mean 	-nan
attr source  depletedPowerDl
attr title  "LTE ENodeB depleted power Dl, mean"
attr unit  watts
scalar MultiCell.eNodeB1.lteNic.mac 	avgServedBlocksUl:mean 	-nan
attr source  avgServedBlocksUl
attr title  "LTE Avg Served Blocks Ul, mean"
attr unit  blocks
scalar MultiCell.eNodeB1.lteNic.mac 	avgServedBlocksDl:mean 	-nan
attr source  avgServedBlocksDl
attr title  "LTE Avg Served Blocks Dl, mean"
attr unit  blocks
scalar MultiCell.eNodeB1.lteNic.mac 	cellBlocksUtilizationUl:mean 	-nan
attr source  cellBlocksUtilizationUl
attr title  "LTE Cell Blocks Utilization Ul, mean"
attr unit  blocks
scalar MultiCell.eNodeB1.lteNic.mac 	cellBlocksUtilizationDl:mean 	-nan
attr source  cellBlocksUtilizationDl
attr title  "LTE Cell Blocks Utilization Dl, mean"
attr unit  blocks
scalar MultiCell.eNodeB1.lteNic.mac 	tmsMuMimo:mean 	-nan
attr source  tmsMuMimo
attr title  "how many time TMS has coiche MuMIMO respect to the other, mean"
attr unit  ratio
scalar MultiCell.eNodeB1.lteNic.mac 	tmsSMux:mean 	-nan
attr source  tmsSMux
attr title  "how many time TMS has coiche SMUX respect to the other, mean"
attr unit  ratio
scalar MultiCell.eNodeB1.lteNic.mac 	tmsTxDiv:mean 	-nan
attr source  tmsTxDiv
attr title  "how many time TMS has coiche TxDIV respect to the other, mean"
attr unit  ratio
scalar MultiCell.eNodeB1.lteNic.mac 	measuredItbs:mean 	-nan
attr source  measuredItbs
attr title  "TBS index, mean"
attr unit  ""
scalar MultiCell.eNodeB1.lteNic.mac 	harqErrorRate_4th_D2D:mean 	-nan
attr source  harqErrorRate_4th_D2D
attr title  "Harq Error Rate D2D, mean"
attr unit  ""
scalar MultiCell.eNodeB1.lteNic.mac 	harqErrorRate_4th_Dl:mean 	-nan
attr source  harqErrorRate_4th_Dl
attr title  "Harq Error Rate Dl, mean"
attr unit  ""
scalar MultiCell.eNodeB1.lteNic.mac 	harqErrorRate_4th_Ul:mean 	-nan
attr source  harqErrorRate_4th_Ul
attr title  "Harq Error Rate Dl, mean"
attr unit  ""
scalar MultiCell.eNodeB1.lteNic.mac 	harqErrorRate_3rd_D2D:mean 	-nan
attr source  harqErrorRate_3rd_D2D
attr title  "Harq Error Rate D2D, mean"
attr unit  ""
scalar MultiCell.eNodeB1.lteNic.mac 	harqErrorRate_3rd_Dl:mean 	-nan
attr source  harqErrorRate_3rd_Dl
attr title  "Harq Error Rate Dl, mean"
attr unit  ""
scalar MultiCell.eNodeB1.lteNic.mac 	harqErrorRate_3rd_Ul:mean 	-nan
attr source  harqErrorRate_3rd_Ul
attr title  "Harq Error Rate Dl, mean"
attr unit  ""
scalar MultiCell.eNodeB1.lteNic.mac 	harqErrorRate_2nd_D2D:mean 	-nan
attr source  harqErrorRate_2nd_D2D
attr title  "Harq Error Rate D2D, mean"
attr unit  ""
scalar MultiCell.eNodeB1.lteNic.mac 	harqErrorRate_2nd_Dl:mean 	-nan
attr source  harqErrorRate_2nd_Dl
attr title  "Harq Error Rate Dl, mean"
attr unit  ""
scalar MultiCell.eNodeB1.lteNic.mac 	harqErrorRate_2nd_Ul:mean 	-nan
attr source  harqErrorRate_2nd_Ul
attr title  "Harq Error Rate Dl, mean"
attr unit  ""
scalar MultiCell.eNodeB1.lteNic.mac 	harqErrorRate_1st_D2D:mean 	-nan
attr source  harqErrorRate_1st_D2D
attr title  "Harq Error Rate D2D, mean"
attr unit  ""
scalar MultiCell.eNodeB1.lteNic.mac 	harqErrorRate_1st_Dl:mean 	-nan
attr source  harqErrorRate_1st_Dl
attr title  "Harq Error Rate Dl, mean"
attr unit  ""
scalar MultiCell.eNodeB1.lteNic.mac 	harqErrorRate_1st_Ul:mean 	-nan
attr source  harqErrorRate_1st_Ul
attr title  "Harq Error Rate Dl, mean"
attr unit  ""
scalar MultiCell.eNodeB1.lteNic.mac 	harqErrorRateD2D:mean 	-nan
attr source  harqErrorRateD2D
attr title  "Harq Error Rate D2D, mean"
attr unit  ""
scalar MultiCell.eNodeB1.lteNic.mac 	harqErrorRateDl:mean 	-nan
attr source  harqErrorRateDl
attr title  "Harq Error Rate Dl, mean"
attr unit  ""
scalar MultiCell.eNodeB1.lteNic.mac 	harqErrorRateUl:mean 	-nan
attr source  harqErrorRateUl
attr title  "Harq Error Rate Dl, mean"
attr unit  ""
scalar MultiCell.eNodeB1.lteNic.mac 	macBufferOverFlowD2D:mean 	-nan
attr source  macBufferOverFlowD2D
attr title  "Mac buffer overflow as function of time, mean"
attr unit  Byte/s
scalar MultiCell.eNodeB1.lteNic.mac 	macBufferOverFlowUl:mean 	-nan
attr source  macBufferOverFlowUl
attr title  "Mac buffer overflow as function of time, mean"
attr unit  Byte/s
scalar MultiCell.eNodeB1.lteNic.mac 	macBufferOverFlowDl:mean 	-nan
attr source  macBufferOverFlowDl
attr title  "Mac buffer overflow as function of time, mean"
attr unit  Byte/s
scalar MultiCell.eNodeB1.lteNic.mac 	macPacketLossD2D:mean 	-nan
attr source  macPacketLossD2D
attr title  "Mac Packet Loss D2D, mean"
attr unit  ""
scalar MultiCell.eNodeB1.lteNic.mac 	macPacketLossDl:mean 	-nan
attr source  macPacketLossDl
attr title  "Mac Packet Loss, mean"
attr unit  ""
scalar MultiCell.eNodeB1.lteNic.mac 	macPacketLossUl:mean 	-nan
attr source  macPacketLossUl
attr title  "Mac Packet Loss, mean"
attr unit  ""
scalar MultiCell.eNodeB1.lteNic.mac 	macCellPacketLossD2D:mean 	-nan
attr source  macCellPacketLossD2D
attr title  "Mac Cell Packet Loss D2D, mean"
attr unit  ""
scalar MultiCell.eNodeB1.lteNic.mac 	macCellPacketLossUl:mean 	-nan
attr source  macCellPacketLossUl
attr title  "Mac Cell Packet Loss, mean"
attr unit  ""
scalar MultiCell.eNodeB1.lteNic.mac 	macCellPacketLossDl:mean 	-nan
attr source  macCellPacketLossDl
attr title  "Mac Cell Packet Loss, mean"
attr unit  ""
scalar MultiCell.eNodeB1.lteNic.mac 	macCellThroughputD2D:mean 	-nan
attr source  macCellThroughputD2D
attr title  "Cell Throughput at the MAC layer D2D, mean"
attr unit  Bps
scalar MultiCell.eNodeB1.lteNic.mac 	macCellThroughputDl:mean 	-nan
attr source  macCellThroughputDl
attr title  "Cell Throughput at the MAC layer DL, mean"
attr unit  Bps
scalar MultiCell.eNodeB1.lteNic.mac 	macCellThroughputUl:mean 	-nan
attr source  macCellThroughputUl
attr title  "Cell Throughput at the MAC layer UL, mean"
attr unit  Bps
scalar MultiCell.eNodeB1.lteNic.mac 	macThroughputD2D:mean 	-nan
attr source  macThroughputD2D
attr title  "Throughput at the MAC layer D2D, mean"
attr unit  Bps
scalar MultiCell.eNodeB1.lteNic.mac 	macDelayD2D:mean 	-nan
attr source  macDelayD2D
attr title  "Delay at the MAC layer D2D, mean"
attr unit  s
scalar MultiCell.eNodeB1.lteNic.mac 	macThroughputUl:mean 	-nan
attr source  macThroughputUl
attr title  "Throughput at the MAC layer UL, mean"
attr unit  Bps
scalar MultiCell.eNodeB1.lteNic.mac 	macDelayUl:mean 	-nan
attr source  macDelayUl
attr title  "Delay at the MAC layer UL, mean"
attr unit  s
scalar MultiCell.eNodeB1.lteNic.mac 	macThroughputDl:mean 	-nan
attr source  macThroughputDl
attr title  "Throughput at the MAC layer DL, mean"
attr unit  Bps
scalar MultiCell.eNodeB1.lteNic.mac 	macDelayDl:mean 	-nan
attr source  macDelayDl
attr title  "Delay at the MAC layer UL, mean"
attr unit  s
scalar MultiCell.eNodeB1.lteNic.mac 	sentPacketToLowerLayer:count 	0
attr interpolationmode  none
attr source  sentPacketToLowerLayer
scalar MultiCell.eNodeB1.lteNic.mac 	sentPacketToLowerLayer:sum(packetBytes) 	0
attr interpolationmode  none
attr source  sentPacketToLowerLayer
scalar MultiCell.eNodeB1.lteNic.mac 	sentPacketToUpperLayer:count 	0
attr interpolationmode  none
attr source  sentPacketToUpperLayer
scalar MultiCell.eNodeB1.lteNic.mac 	sentPacketToUpperLayer:sum(packetBytes) 	0
attr interpolationmode  none
attr source  sentPacketToUpperLayer
scalar MultiCell.eNodeB1.lteNic.mac 	receivedPacketFromLowerLayer:count 	0
attr interpolationmode  none
attr source  receivedPacketFromLowerLayer
scalar MultiCell.eNodeB1.lteNic.mac 	receivedPacketFromLowerLayer:sum(packetBytes) 	0
attr interpolationmode  none
attr source  receivedPacketFromLowerLayer
scalar MultiCell.eNodeB1.lteNic.mac 	receivedPacketFromUpperLayer:count 	0
attr interpolationmode  none
attr source  receivedPacketFromUpperLayer
scalar MultiCell.eNodeB1.lteNic.mac 	receivedPacketFromUpperLayer:sum(packetBytes) 	0
attr interpolationmode  none
attr source  receivedPacketFromUpperLayer
statistic MultiCell.eNodeB1.pppIf.queue 	queueingTime:histogram
field count 0
field mean -nan
field stddev -nan
field sum 0
field sqrsum 0
field min -nan
field max -nan
attr interpolationmode  none
attr title  "queueing time, histogram"
bin	-INF	0
bin	-0.5	0
bin	-0.46666666666667	0
bin	-0.43333333333333	0
bin	-0.4	0
bin	-0.36666666666667	0
bin	-0.33333333333333	0
bin	-0.3	0
bin	-0.26666666666667	0
bin	-0.23333333333333	0
bin	-0.2	0
bin	-0.16666666666667	0
bin	-0.13333333333333	0
bin	-0.1	0
bin	-0.066666666666667	0
bin	-0.033333333333333	0
bin	0	0
bin	0.033333333333333	0
bin	0.066666666666667	0
bin	0.1	0
bin	0.13333333333333	0
bin	0.16666666666667	0
bin	0.2	0
bin	0.23333333333333	0
bin	0.26666666666667	0
bin	0.3	0
bin	0.33333333333333	0
bin	0.36666666666667	0
bin	0.4	0
bin	0.43333333333333	0
bin	0.46666666666667	0
bin	0.5	0
scalar MultiCell.eNodeB1.pppIf.queue 	dropPk:count 	0
attr interpolationmode  none
attr source  dropPkByQueue
attr title  "dropped packets, count"
scalar MultiCell.eNodeB1.pppIf.queue 	dropPk:sum(packetBytes) 	0
attr interpolationmode  none
attr source  dropPkByQueue
attr title  "dropped packets, sum(packetBytes)"
scalar MultiCell.eNodeB1.pppIf.queue 	queueLength:max 	0
attr interpolationmode  sample-hold
attr title  "queue length, max"
scalar MultiCell.eNodeB1.pppIf.queue 	queueLength:timeavg 	-nan
attr interpolationmode  sample-hold
attr title  "queue length, timeavg"
scalar MultiCell.eNodeB1.pppIf.queue 	rcvdPk:count 	0
attr interpolationmode  none
attr title  "received packets, count"
scalar MultiCell.eNodeB1.pppIf.queue 	rcvdPk:sum(packetBytes) 	0
attr interpolationmode  none
attr title  "received packets, sum(packetBytes)"
scalar MultiCell.eNodeB1.pppIf.ppp 	txState:timeavg 	-nan
attr interpolationmode  sample-hold
attr title  "tx state, timeavg"
scalar MultiCell.eNodeB1.pppIf.ppp 	droppedPkIfaceDown:count 	0
attr interpolationmode  none
attr source  dropPkIfaceDown
attr title  "packets dropped/interface down, count"
scalar MultiCell.eNodeB1.pppIf.ppp 	droppedPkIfaceDown:sum(packetBytes) 	0
attr interpolationmode  none
attr source  dropPkIfaceDown
attr title  "packets dropped/interface down, sum(packetBytes)"
scalar MultiCell.eNodeB1.pppIf.ppp 	droppedPkBitError:count 	0
attr interpolationmode  none
attr source  dropPkBitError
attr title  "packets dropped/bit error, count"
scalar MultiCell.eNodeB1.pppIf.ppp 	droppedPkBitError:sum(packetBytes) 	0
attr interpolationmode  none
attr source  dropPkBitError
attr title  "packets dropped/bit error, sum(packetBytes)"
scalar MultiCell.eNodeB1.pppIf.ppp 	rxPkOk:count 	0
attr interpolationmode  none
attr source  rxPkOk
attr title  "packets received OK, count"
scalar MultiCell.eNodeB1.pppIf.ppp 	rxPkOk:sum(packetBytes) 	0
attr interpolationmode  none
attr source  rxPkOk
attr title  "packets received OK, sum(packetBytes)"
scalar MultiCell.eNodeB1.pppIf.ppp 	txPk:count 	0
attr interpolationmode  none
attr source  packetSentToLower
attr title  "packets transmitted, count"
scalar MultiCell.eNodeB1.pppIf.ppp 	txPk:sum(packetBytes) 	0
attr interpolationmode  none
attr source  packetSentToLower
attr title  "packets transmitted, sum(packetBytes)"
scalar MultiCell.eNodeB1.pppIf.ppp 	rcvdPkFromHL:count 	0
attr interpolationmode  none
attr source  packetReceivedFromUpper
attr title  "packets received from higher layer, count"
scalar MultiCell.eNodeB1.pppIf.ppp 	rcvdPkFromHL:sum(packetBytes) 	0
attr interpolationmode  none
attr source  packetReceivedFromUpper
attr title  "packets received from higher layer, sum(packetBytes)"
scalar MultiCell.eNodeB1.pppIf.ppp 	passedUpPk:count 	0
attr interpolationmode  none
attr source  packetSentToUpper
attr title  "packets passed to higher layer, count"
scalar MultiCell.eNodeB1.pppIf.ppp 	passedUpPk:sum(packetBytes) 	0
attr interpolationmode  none
attr source  packetSentToUpper
attr title  "packets passed to higher layer, sum(packetBytes)"
statistic MultiCell.eNodeB1.x2ppp[0].queue 	queueingTime:histogram
field count 0
field mean -nan
field stddev -nan
field sum 0
field sqrsum 0
field min -nan
field max -nan
attr interpolationmode  none
attr title  "queueing time, histogram"
bin	-INF	0
bin	-0.5	0
bin	-0.46666666666667	0
bin	-0.43333333333333	0
bin	-0.4	0
bin	-0.36666666666667	0
bin	-0.33333333333333	0
bin	-0.3	0
bin	-0.26666666666667	0
bin	-0.23333333333333	0
bin	-0.2	0
bin	-0.16666666666667	0
bin	-0.13333333333333	0
bin	-0.1	0
bin	-0.066666666666667	0
bin	-0.033333333333333	0
bin	0	0
bin	0.033333333333333	0
bin	0.066666666666667	0
bin	0.1	0
bin	0.13333333333333	0
bin	0.16666666666667	0
bin	0.2	0
bin	0.23333333333333	0
bin	0.26666666666667	0
bin	0.3	0
bin	0.33333333333333	0
bin	0.36666666666667	0
bin	0.4	0
bin	0.43333333333333	0
bin	0.46666666666667	0
bin	0.5	0
scalar MultiCell.eNodeB1.x2ppp[0].queue 	dropPk:count 	0
attr interpolationmode  none
attr source  dropPkByQueue
attr title  "dropped packets, count"
scalar MultiCell.eNodeB1.x2ppp[0].queue 	dropPk:sum(packetBytes) 	0
attr interpolationmode  none
attr source  dropPkByQueue
attr title  "dropped packets, sum(packetBytes)"
scalar MultiCell.eNodeB1.x2ppp[0].queue 	queueLength:max 	0
attr interpolationmode  sample-hold
attr title  "queue length, max"
scalar MultiCell.eNodeB1.x2ppp[0].queue 	queueLength:timeavg 	-nan
attr interpolationmode  sample-hold
attr title  "queue length, timeavg"
scalar MultiCell.eNodeB1.x2ppp[0].queue 	rcvdPk:count 	0
attr interpolationmode  none
attr title  "received packets, count"
scalar MultiCell.eNodeB1.x2ppp[0].queue 	rcvdPk:sum(packetBytes) 	0
attr interpolationmode  none
attr title  "received packets, sum(packetBytes)"
scalar MultiCell.eNodeB1.x2ppp[0].ppp 	txState:timeavg 	-nan
attr interpolationmode  sample-hold
attr title  "tx state, timeavg"
scalar MultiCell.eNodeB1.x2ppp[0].ppp 	droppedPkIfaceDown:count 	0
attr interpolationmode  none
attr source  dropPkIfaceDown
attr title  "packets dropped/interface down, count"
scalar MultiCell.eNodeB1.x2ppp[0].ppp 	droppedPkIfaceDown:sum(packetBytes) 	0
attr interpolationmode  none
attr source  dropPkIfaceDown
attr title  "packets dropped/interface down, sum(packetBytes)"
scalar MultiCell.eNodeB1.x2ppp[0].ppp 	droppedPkBitError:count 	0
attr interpolationmode  none
attr source  dropPkBitError
attr title  "packets dropped/bit error, count"
scalar MultiCell.eNodeB1.x2ppp[0].ppp 	droppedPkBitError:sum(packetBytes) 	0
attr interpolationmode  none
attr source  dropPkBitError
attr title  "packets dropped/bit error, sum(packetBytes)"
scalar MultiCell.eNodeB1.x2ppp[0].ppp 	rxPkOk:count 	0
attr interpolationmode  none
attr source  rxPkOk
attr title  "packets received OK, count"
scalar MultiCell.eNodeB1.x2ppp[0].ppp 	rxPkOk:sum(packetBytes) 	0
attr interpolationmode  none
attr source  rxPkOk
attr title  "packets received OK, sum(packetBytes)"
scalar MultiCell.eNodeB1.x2ppp[0].ppp 	txPk:count 	0
attr interpolationmode  none
attr source  packetSentToLower
attr title  "packets transmitted, count"
scalar MultiCell.eNodeB1.x2ppp[0].ppp 	txPk:sum(packetBytes) 	0
attr interpolationmode  none
attr source  packetSentToLower
attr title  "packets transmitted, sum(packetBytes)"
scalar MultiCell.eNodeB1.x2ppp[0].ppp 	rcvdPkFromHL:count 	0
attr interpolationmode  none
attr source  packetReceivedFromUpper
attr title  "packets received from higher layer, count"
scalar MultiCell.eNodeB1.x2ppp[0].ppp 	rcvdPkFromHL:sum(packetBytes) 	0
attr interpolationmode  none
attr source  packetReceivedFromUpper
attr title  "packets received from higher layer, sum(packetBytes)"
scalar MultiCell.eNodeB1.x2ppp[0].ppp 	passedUpPk:count 	0
attr interpolationmode  none
attr source  packetSentToUpper
attr title  "packets passed to higher layer, count"
scalar MultiCell.eNodeB1.x2ppp[0].ppp 	passedUpPk:sum(packetBytes) 	0
attr interpolationmode  none
attr source  packetSentToUpper
attr title  "packets passed to higher layer, sum(packetBytes)"
scalar MultiCell.eNodeB1.networkLayer.arp 	failedARPResolution:count 	0
attr title  "ARP failed resolutions, count"
scalar MultiCell.eNodeB1.networkLayer.arp 	completedARPResolution:count 	0
attr title  "ARP completed resolutions, count"
scalar MultiCell.eNodeB1.networkLayer.arp 	initiatedARPResolution:count 	0
attr title  "ARP initiated resolutions, count"
scalar MultiCell.eNodeB1.networkLayer.arp 	sentReply:count 	0
attr title  "ARP replies sent, count"
scalar MultiCell.eNodeB1.networkLayer.arp 	sentReq:count 	0
attr title  "ARP request sent, count"
scalar MultiCell.eNodeB1.udp 	droppedPkBadChecksum:count 	0
attr interpolationmode  none
attr title  "packets dropped (checksum error), count"
scalar MultiCell.eNodeB1.udp 	droppedPkWrongPort:count 	0
attr interpolationmode  none
attr title  "packets dropped (wrong port), count"
scalar MultiCell.eNodeB1.udp 	passedUpPk:count 	0
attr interpolationmode  none
attr title  "packets passed up, count"
scalar MultiCell.eNodeB1.udp 	rcvdPk:count 	0
attr interpolationmode  none
attr source  rcvdPk
attr title  "packets received, count"
scalar MultiCell.eNodeB1.udp 	rcvdPk:sum(packetBytes) 	0
attr interpolationmode  none
attr source  rcvdPk
attr title  "packets received, sum(packetBytes)"
scalar MultiCell.eNodeB1.udp 	sentPk:count 	0
attr interpolationmode  none
attr source  sentPk
attr title  "packets sent, count"
scalar MultiCell.eNodeB1.udp 	sentPk:sum(packetBytes) 	0
attr interpolationmode  none
attr source  sentPk
attr title  "packets sent, sum(packetBytes)"
scalar MultiCell.eNodeB2.lteNic.pdcpRrc 	sentPacketToLowerLayer:count 	0
attr interpolationmode  none
attr source  sentPacketToLowerLayer
scalar MultiCell.eNodeB2.lteNic.pdcpRrc 	sentPacketToLowerLayer:sum(packetBytes) 	0
attr interpolationmode  none
attr source  sentPacketToLowerLayer
scalar MultiCell.eNodeB2.lteNic.pdcpRrc 	sentPacketToUpperLayer:count 	0
attr interpolationmode  none
attr source  sentPacketToUpperLayer
scalar MultiCell.eNodeB2.lteNic.pdcpRrc 	sentPacketToUpperLayer:sum(packetBytes) 	0
attr interpolationmode  none
attr source  sentPacketToUpperLayer
scalar MultiCell.eNodeB2.lteNic.pdcpRrc 	receivedPacketFromLowerLayer:count 	0
attr interpolationmode  none
attr source  receivedPacketFromLowerLayer
scalar MultiCell.eNodeB2.lteNic.pdcpRrc 	receivedPacketFromLowerLayer:sum(packetBytes) 	0
attr interpolationmode  none
attr source  receivedPacketFromLowerLayer
scalar MultiCell.eNodeB2.lteNic.pdcpRrc 	receivedPacketFromUpperLayer:count 	0
attr interpolationmode  none
attr source  receivedPacketFromUpperLayer
scalar MultiCell.eNodeB2.lteNic.pdcpRrc 	receivedPacketFromUpperLayer:sum(packetBytes) 	0
attr interpolationmode  none
attr source  receivedPacketFromUpperLayer
scalar MultiCell.eNodeB2.lteNic.pdcpRrc 	pdcpdrop3:mean 	-nan
attr source  pdcpdrop3
attr title  "Drop at PDCP layer 3, mean"
attr unit  ""
scalar MultiCell.eNodeB2.lteNic.pdcpRrc 	pdcpdrop2:mean 	-nan
attr source  pdcpdrop2
attr title  "Drop at PDCP layer 2, mean"
attr unit  ""
scalar MultiCell.eNodeB2.lteNic.pdcpRrc 	pdcpdrop1:mean 	-nan
attr source  pdcpdrop1
attr title  "Drop at PDCP layer 1, mean"
attr unit  ""
scalar MultiCell.eNodeB2.lteNic.pdcpRrc 	pdcpdrop0:mean 	-nan
attr source  pdcpdrop0
attr title  "Drop at PDCP layer 0, mean"
attr unit  ""
scalar MultiCell.eNodeB2.lteNic.rlc.um 	rlcPduPacketLossD2D:mean 	-nan
attr source  rlcPduPacketLossD2D
attr title  "rlc Packet Loss, mean"
attr unit  ""
scalar MultiCell.eNodeB2.lteNic.rlc.um 	rlcPduPacketLossDl:mean 	-nan
attr source  rlcPduPacketLossDl
attr title  "rlc Packet Loss, mean"
attr unit  ""
scalar MultiCell.eNodeB2.lteNic.rlc.um 	rlcPduPacketLossUl:mean 	-nan
attr source  rlcPduPacketLossUl
attr title  "rlc Packet Loss, mean"
attr unit  ""
scalar MultiCell.eNodeB2.lteNic.rlc.um 	rlcPacketLossTotal:mean 	-nan
attr source  rlcPacketLossTotal
attr title  "rlc Packet Loss, mean"
attr unit  ""
scalar MultiCell.eNodeB2.lteNic.rlc.um 	rlcPacketLossD2D:mean 	-nan
attr source  rlcPacketLossD2D
attr title  "rlc Packet Loss, mean"
attr unit  ""
scalar MultiCell.eNodeB2.lteNic.rlc.um 	rlcPacketLossDl:mean 	-nan
attr source  rlcPacketLossDl
attr title  "rlc Packet Loss, mean"
attr unit  ""
scalar MultiCell.eNodeB2.lteNic.rlc.um 	rlcPacketLossUl:mean 	-nan
attr source  rlcPacketLossUl
attr title  "rlc Packet Loss, mean"
attr unit  ""
scalar MultiCell.eNodeB2.lteNic.rlc.um 	rlcCellPacketLossD2D:mean 	-nan
attr source  rlcCellPacketLossD2D
attr title  "rlc Cell Packet Loss, mean"
attr unit  ""
scalar MultiCell.eNodeB2.lteNic.rlc.um 	rlcCellPacketLossUl:mean 	-nan
attr source  rlcCellPacketLossUl
attr title  "rlc Cell Packet Loss, mean"
attr unit  ""
scalar MultiCell.eNodeB2.lteNic.rlc.um 	rlcCellPacketLossDl:mean 	-nan
attr source  rlcCellPacketLossDl
attr title  "rlc Cell Packet Loss, mean"
attr unit  ""
scalar MultiCell.eNodeB2.lteNic.rlc.um 	rlcCellThroughputD2D:mean 	-nan
attr source  rlcCellThroughputD2D
attr title  "Cell Throughput at the rlc layer D2D, mean"
attr unit  Bps
scalar MultiCell.eNodeB2.lteNic.rlc.um 	rlcCellThroughputDl:mean 	-nan
attr source  rlcCellThroughputDl
attr title  "Cell Throughput at the rlc layer DL, mean"
attr unit  Bps
scalar MultiCell.eNodeB2.lteNic.rlc.um 	rlcCellThroughputUl:mean 	-nan
attr source  rlcCellThroughputUl
attr title  "Cell Throughput at the rlc layer UL, mean"
attr unit  Bps
scalar MultiCell.eNodeB2.lteNic.rlc.um 	rlcPduThroughputD2D:mean 	-nan
attr source  rlcPduThroughputD2D
attr title  "Throughput at the rlc layer D2D, mean"
attr unit  Bps
scalar MultiCell.eNodeB2.lteNic.rlc.um 	rlcPduDelayD2D:mean 	-nan
attr source  rlcPduDelayD2D
attr title  "Delay at the rlc layer D2D, mean"
attr unit  s
scalar MultiCell.eNodeB2.lteNic.rlc.um 	rlcPduThroughputUl:mean 	-nan
attr source  rlcPduThroughputUl
attr title  "Throughput at the rlc layer UL, mean"
attr unit  Bps
scalar MultiCell.eNodeB2.lteNic.rlc.um 	rlcPduDelayUl:mean 	-nan
attr source  rlcPduDelayUl
attr title  "Delay at the rlc layer UL, mean"
attr unit  s
scalar MultiCell.eNodeB2.lteNic.rlc.um 	rlcPduThroughputDl:mean 	-nan
attr source  rlcPduThroughputDl
attr title  "Throughput at the rlc layer DL, mean"
attr unit  Bps
scalar MultiCell.eNodeB2.lteNic.rlc.um 	rlcPduDelayDl:mean 	-nan
attr source  rlcPduDelayDl
attr title  "Delay at the rlc layer UL, mean"
attr unit  s
scalar MultiCell.eNodeB2.lteNic.rlc.um 	rlcThroughputD2D:mean 	-nan
attr source  rlcThroughputD2D
attr title  "Throughput at the rlc layer D2D, mean"
attr unit  Bps
scalar MultiCell.eNodeB2.lteNic.rlc.um 	rlcDelayD2D:mean 	-nan
attr source  rlcDelayD2D
attr title  "Delay at the rlc layer D2D, mean"
attr unit  s
scalar MultiCell.eNodeB2.lteNic.rlc.um 	rlcThroughputUl:mean 	-nan
attr source  rlcThroughputUl
attr title  "Throughput at the rlc layer UL, mean"
attr unit  Bps
scalar MultiCell.eNodeB2.lteNic.rlc.um 	rlcDelayUl:mean 	-nan
attr source  rlcDelayUl
attr title  "Delay at the rlc layer UL, mean"
attr unit  s
scalar MultiCell.eNodeB2.lteNic.rlc.um 	rlcThroughputDl:mean 	-nan
attr source  rlcThroughputDl
attr title  "Throughput at the rlc layer DL, mean"
attr unit  Bps
scalar MultiCell.eNodeB2.lteNic.rlc.um 	rlcDelayDl:mean 	-nan
attr source  rlcDelayDl
attr title  "Delay at the rlc layer UL, mean"
attr unit  s
scalar MultiCell.eNodeB2.lteNic.rlc.am 	rlcPduPacketLossD2D:mean 	-nan
attr source  rlcPduPacketLossD2D
attr title  "rlc Packet Loss, mean"
attr unit  ""
scalar MultiCell.eNodeB2.lteNic.rlc.am 	rlcPduPacketLossDl:mean 	-nan
attr source  rlcPduPacketLossDl
attr title  "rlc Packet Loss, mean"
attr unit  ""
scalar MultiCell.eNodeB2.lteNic.rlc.am 	rlcPduPacketLossUl:mean 	-nan
attr source  rlcPduPacketLossUl
attr title  "rlc Packet Loss, mean"
attr unit  ""
scalar MultiCell.eNodeB2.lteNic.rlc.am 	rlcPacketLossTotal:mean 	-nan
attr source  rlcPacketLossTotal
attr title  "rlc Packet Loss, mean"
attr unit  ""
scalar MultiCell.eNodeB2.lteNic.rlc.am 	rlcPacketLossD2D:mean 	-nan
attr source  rlcPacketLossD2D
attr title  "rlc Packet Loss, mean"
attr unit  ""
scalar MultiCell.eNodeB2.lteNic.rlc.am 	rlcPacketLossDl:mean 	-nan
attr source  rlcPacketLossDl
attr title  "rlc Packet Loss, mean"
attr unit  ""
scalar MultiCell.eNodeB2.lteNic.rlc.am 	rlcPacketLossUl:mean 	-nan
attr source  rlcPacketLossUl
attr title  "rlc Packet Loss, mean"
attr unit  ""
scalar MultiCell.eNodeB2.lteNic.rlc.am 	rlcCellPacketLossD2D:mean 	-nan
attr source  rlcCellPacketLossD2D
attr title  "rlc Cell Packet Loss, mean"
attr unit  ""
scalar MultiCell.eNodeB2.lteNic.rlc.am 	rlcCellPacketLossUl:mean 	-nan
attr source  rlcCellPacketLossUl
attr title  "rlc Cell Packet Loss, mean"
attr unit  ""
scalar MultiCell.eNodeB2.lteNic.rlc.am 	rlcCellPacketLossDl:mean 	-nan
attr source  rlcCellPacketLossDl
attr title  "rlc Cell Packet Loss, mean"
attr unit  ""
scalar MultiCell.eNodeB2.lteNic.rlc.am 	rlcCellThroughputD2D:mean 	-nan
attr source  rlcCellThroughputD2D
attr title  "Cell Throughput at the rlc layer D2D, mean"
attr unit  Bps
scalar MultiCell.eNodeB2.lteNic.rlc.am 	rlcCellThroughputDl:mean 	-nan
attr source  rlcCellThroughputDl
attr title  "Cell Throughput at the rlc layer DL, mean"
attr unit  Bps
scalar MultiCell.eNodeB2.lteNic.rlc.am 	rlcCellThroughputUl:mean 	-nan
attr source  rlcCellThroughputUl
attr title  "Cell Throughput at the rlc layer UL, mean"
attr unit  Bps
scalar MultiCell.eNodeB2.lteNic.rlc.am 	rlcPduThroughputD2D:mean 	-nan
attr source  rlcPduThroughputD2D
attr title  "Throughput at the rlc layer D2D, mean"
attr unit  Bps
scalar MultiCell.eNodeB2.lteNic.rlc.am 	rlcPduDelayD2D:mean 	-nan
attr source  rlcPduDelayD2D
attr title  "Delay at the rlc layer D2D, mean"
attr unit  s
scalar MultiCell.eNodeB2.lteNic.rlc.am 	rlcPduThroughputUl:mean 	-nan
attr source  rlcPduThroughputUl
attr title  "Throughput at the rlc layer UL, mean"
attr unit  Bps
scalar MultiCell.eNodeB2.lteNic.rlc.am 	rlcPduDelayUl:mean 	-nan
attr source  rlcPduDelayUl
attr title  "Delay at the rlc layer UL, mean"
attr unit  s
scalar MultiCell.eNodeB2.lteNic.rlc.am 	rlcPduThroughputDl:mean 	-nan
attr source  rlcPduThroughputDl
attr title  "Throughput at the rlc layer DL, mean"
attr unit  Bps
scalar MultiCell.eNodeB2.lteNic.rlc.am 	rlcPduDelayDl:mean 	-nan
attr source  rlcPduDelayDl
attr title  "Delay at the rlc layer UL, mean"
attr unit  s
scalar MultiCell.eNodeB2.lteNic.rlc.am 	rlcThroughputD2D:mean 	-nan
attr source  rlcThroughputD2D
attr title  "Throughput at the rlc layer D2D, mean"
attr unit  Bps
scalar MultiCell.eNodeB2.lteNic.rlc.am 	rlcDelayD2D:mean 	-nan
attr source  rlcDelayD2D
attr title  "Delay at the rlc layer D2D, mean"
attr unit  s
scalar MultiCell.eNodeB2.lteNic.rlc.am 	rlcThroughputUl:mean 	-nan
attr source  rlcThroughputUl
attr title  "Throughput at the rlc layer UL, mean"
attr unit  Bps
scalar MultiCell.eNodeB2.lteNic.rlc.am 	rlcDelayUl:mean 	-nan
attr source  rlcDelayUl
attr title  "Delay at the rlc layer UL, mean"
attr unit  s
scalar MultiCell.eNodeB2.lteNic.rlc.am 	rlcThroughputDl:mean 	-nan
attr source  rlcThroughputDl
attr title  "Throughput at the rlc layer DL, mean"
attr unit  Bps
scalar MultiCell.eNodeB2.lteNic.rlc.am 	rlcDelayDl:mean 	-nan
attr source  rlcDelayDl
attr title  "Delay at the rlc layer UL, mean"
attr unit  s
scalar MultiCell.eNodeB2.lteNic.mac 	rb_9:mean 	-nan
attr source  rb_9
attr unit  ratio
scalar MultiCell.eNodeB2.lteNic.mac 	rb_8c:mean 	-nan
attr source  rb_8c
attr unit  ratio
scalar MultiCell.eNodeB2.lteNic.mac 	rb_7c:mean 	-nan
attr source  rb_7c
attr unit  ratio
scalar MultiCell.eNodeB2.lteNic.mac 	rb_6c:mean 	-nan
attr source  rb_6c
attr unit  ratio
scalar MultiCell.eNodeB2.lteNic.mac 	rb_8b:mean 	-nan
attr source  rb_8b
attr unit  ratio
scalar MultiCell.eNodeB2.lteNic.mac 	rb_7b:mean 	-nan
attr source  rb_7b
attr unit  ratio
scalar MultiCell.eNodeB2.lteNic.mac 	rb_6b:mean 	-nan
attr source  rb_6b
attr unit  ratio
scalar MultiCell.eNodeB2.lteNic.mac 	rb_8a:mean 	-nan
attr source  rb_8a
attr unit  ratio
scalar MultiCell.eNodeB2.lteNic.mac 	rb_7a:mean 	-nan
attr source  rb_7a
attr unit  ratio
scalar MultiCell.eNodeB2.lteNic.mac 	rb_6a:mean 	-nan
attr source  rb_6a
attr unit  ratio
scalar MultiCell.eNodeB2.lteNic.mac 	rb_5:mean 	-nan
attr source  rb_5
attr unit  ratio
scalar MultiCell.eNodeB2.lteNic.mac 	rb_4:mean 	-nan
attr source  rb_4
attr unit  ratio
scalar MultiCell.eNodeB2.lteNic.mac 	rb_3c:mean 	-nan
attr source  rb_3c
attr unit  ratio
scalar MultiCell.eNodeB2.lteNic.mac 	rb_2c:mean 	-nan
attr source  rb_2c
attr unit  ratio
scalar MultiCell.eNodeB2.lteNic.mac 	rb_1c:mean 	-nan
attr source  rb_1c
attr unit  ratio
scalar MultiCell.eNodeB2.lteNic.mac 	rb_3b:mean 	-nan
attr source  rb_3b
attr unit  ratio
scalar MultiCell.eNodeB2.lteNic.mac 	rb_2b:mean 	-nan
attr source  rb_2b
attr unit  ratio
scalar MultiCell.eNodeB2.lteNic.mac 	rb_1b:mean 	-nan
attr source  rb_1b
attr unit  ratio
scalar MultiCell.eNodeB2.lteNic.mac 	rb_3a:mean 	-nan
attr source  rb_3a
attr unit  ratio
scalar MultiCell.eNodeB2.lteNic.mac 	rb_2a:mean 	-nan
attr source  rb_2a
attr unit  ratio
scalar MultiCell.eNodeB2.lteNic.mac 	rb_1a:mean 	-nan
attr source  rb_1a
attr unit  ratio
scalar MultiCell.eNodeB2.lteNic.mac 	rb_0:mean 	-nan
attr source  rb_0
attr unit  ratio
scalar MultiCell.eNodeB2.lteNic.mac 	prf_9:mean 	-nan
attr source  prf_9
attr unit  ratio
scalar MultiCell.eNodeB2.lteNic.mac 	prf_8c:mean 	-nan
attr source  prf_8c
attr unit  ratio
scalar MultiCell.eNodeB2.lteNic.mac 	prf_7c:mean 	-nan
attr source  prf_7c
attr unit  ratio
scalar MultiCell.eNodeB2.lteNic.mac 	prf_6c:mean 	-nan
attr source  prf_6c
attr unit  ratio
scalar MultiCell.eNodeB2.lteNic.mac 	prf_8b:mean 	-nan
attr source  prf_8b
attr unit  ratio
scalar MultiCell.eNodeB2.lteNic.mac 	prf_7b:mean 	-nan
attr source  prf_7b
attr unit  ratio
scalar MultiCell.eNodeB2.lteNic.mac 	prf_6b:mean 	-nan
attr source  prf_6b
attr unit  ratio
scalar MultiCell.eNodeB2.lteNic.mac 	prf_8a:mean 	-nan
attr source  prf_8a
attr unit  ratio
scalar MultiCell.eNodeB2.lteNic.mac 	prf_7a:mean 	-nan
attr source  prf_7a
attr unit  ratio
scalar MultiCell.eNodeB2.lteNic.mac 	prf_6a:mean 	-nan
attr source  prf_6a
attr unit  ratio
scalar MultiCell.eNodeB2.lteNic.mac 	prf_5:mean 	-nan
attr source  prf_5
attr unit  ratio
scalar MultiCell.eNodeB2.lteNic.mac 	prf_4:mean 	-nan
attr source  prf_4
attr unit  ratio
scalar MultiCell.eNodeB2.lteNic.mac 	prf_3c:mean 	-nan
attr source  prf_3c
attr unit  ratio
scalar MultiCell.eNodeB2.lteNic.mac 	prf_2c:mean 	-nan
attr source  prf_2c
attr unit  ratio
scalar MultiCell.eNodeB2.lteNic.mac 	prf_1c:mean 	-nan
attr source  prf_1c
attr unit  ratio
scalar MultiCell.eNodeB2.lteNic.mac 	prf_3b:mean 	-nan
attr source  prf_3b
attr unit  ratio
scalar MultiCell.eNodeB2.lteNic.mac 	prf_2b:mean 	-nan
attr source  prf_2b
attr unit  ratio
scalar MultiCell.eNodeB2.lteNic.mac 	prf_1b:mean 	-nan
attr source  prf_1b
attr unit  ratio
scalar MultiCell.eNodeB2.lteNic.mac 	prf_3a:mean 	-nan
attr source  prf_3a
attr unit  ratio
scalar MultiCell.eNodeB2.lteNic.mac 	prf_2a:mean 	-nan
attr source  prf_2a
attr unit  ratio
scalar MultiCell.eNodeB2.lteNic.mac 	prf_1a:mean 	-nan
attr source  prf_1a
attr unit  ratio
scalar MultiCell.eNodeB2.lteNic.mac 	prf_0:mean 	-nan
attr source  prf_0
attr unit  ratio
scalar MultiCell.eNodeB2.lteNic.mac 	wastedFrames:mean 	-nan
attr source  wastedFrames
attr title  "D1 algo, ratio of activated frame with no traffic to serve, mean"
attr unit  ratio
scalar MultiCell.eNodeB2.lteNic.mac 	sleepFrames:mean 	-nan
attr source  sleepFrames
attr title  "D1 algo, ratio of sleep frame, mean"
attr unit  ratio
scalar MultiCell.eNodeB2.lteNic.mac 	activatedFrames:mean 	-nan
attr source  activatedFrames
attr title  "D1 algo, ratio of activated frame, mean"
attr unit  ratio
scalar MultiCell.eNodeB2.lteNic.mac 	depletedPowerUl:mean 	-nan
attr source  depletedPowerUl
attr title  "LTE ENodeB depleted power Ul, mean"
attr unit  watts
scalar MultiCell.eNodeB2.lteNic.mac 	depletedPowerDl:mean 	-nan
attr source  depletedPowerDl
attr title  "LTE ENodeB depleted power Dl, mean"
attr unit  watts
[...]
attr source  rcvdPk
attr title  "packets received, count"
scalar MultiCell.ue22.udp 	rcvdPk:sum(packetBytes) 	0
attr interpolationmode  none
attr source  rcvdPk
attr title  "packets received, sum(packetBytes)"
scalar MultiCell.ue22.udp 	sentPk:count 	0
attr interpolationmode  none
attr source  sentPk
attr title  "packets sent, count"
scalar MultiCell.ue22.udp 	sentPk:sum(packetBytes) 	0
attr interpolationmode  none
attr source  sentPk
attr title  "packets sent, sum(packetBytes)"
scalar MultiCell.ue22.lteNic.pdcpRrc 	sentPacketToLowerLayer:count 	0
attr interpolationmode  none
attr source  sentPacketToLowerLayer
scalar MultiCell.ue22.lteNic.pdcpRrc 	sentPacketToLowerLayer:sum(packetBytes) 	0
attr interpolationmode  none
attr source  sentPacketToLowerLayer
scalar MultiCell.ue22.lteNic.pdcpRrc 	sentPacketToUpperLayer:count 	0
attr interpolationmode  none
attr source  sentPacketToUpperLayer
scalar MultiCell.ue22.lteNic.pdcpRrc 	sentPacketToUpperLayer:sum(packetBytes) 	0
attr interpolationmode  none
attr source  sentPacketToUpperLayer
scalar MultiCell.ue22.lteNic.pdcpRrc 	receivedPacketFromLowerLayer:count 	0
attr interpolationmode  none
attr source  receivedPacketFromLowerLayer
scalar MultiCell.ue22.lteNic.pdcpRrc 	receivedPacketFromLowerLayer:sum(packetBytes) 	0
attr interpolationmode  none
attr source  receivedPacketFromLowerLayer
scalar MultiCell.ue22.lteNic.pdcpRrc 	receivedPacketFromUpperLayer:count 	0
attr interpolationmode  none
attr source  receivedPacketFromUpperLayer
scalar MultiCell.ue22.lteNic.pdcpRrc 	receivedPacketFromUpperLayer:sum(packetBytes) 	0
attr interpolationmode  none
attr source  receivedPacketFromUpperLayer
scalar MultiCell.ue22.lteNic.pdcpRrc 	pdcpdrop3:mean 	-nan
attr source  pdcpdrop3
attr title  "Drop at PDCP layer 3, mean"
attr unit  ""
scalar MultiCell.ue22.lteNic.pdcpRrc 	pdcpdrop2:mean 	-nan
attr source  pdcpdrop2
attr title  "Drop at PDCP layer 2, mean"
attr unit  ""
scalar MultiCell.ue22.lteNic.pdcpRrc 	pdcpdrop1:mean 	-nan
attr source  pdcpdrop1
attr title  "Drop at PDCP layer 1, mean"
attr unit  ""
scalar MultiCell.ue22.lteNic.pdcpRrc 	pdcpdrop0:mean 	-nan
attr source  pdcpdrop0
attr title  "Drop at PDCP layer 0, mean"
attr unit  ""
scalar MultiCell.ue22.lteNic.rlc.um 	rlcPduPacketLossD2D:mean 	-nan
attr source  rlcPduPacketLossD2D
attr title  "rlc Packet Loss, mean"
attr unit  ""
scalar MultiCell.ue22.lteNic.rlc.um 	rlcPduPacketLossDl:mean 	-nan
attr source  rlcPduPacketLossDl
attr title  "rlc Packet Loss, mean"
attr unit  ""
scalar MultiCell.ue22.lteNic.rlc.um 	rlcPduPacketLossUl:mean 	-nan
attr source  rlcPduPacketLossUl
attr title  "rlc Packet Loss, mean"
attr unit  ""
scalar MultiCell.ue22.lteNic.rlc.um 	rlcPacketLossTotal:mean 	-nan
attr source  rlcPacketLossTotal
attr title  "rlc Packet Loss, mean"
attr unit  ""
scalar MultiCell.ue22.lteNic.rlc.um 	rlcPacketLossD2D:mean 	-nan
attr source  rlcPacketLossD2D
attr title  "rlc Packet Loss, mean"
attr unit  ""
scalar MultiCell.ue22.lteNic.rlc.um 	rlcPacketLossDl:mean 	-nan
attr source  rlcPacketLossDl
attr title  "rlc Packet Loss, mean"
attr unit  ""
scalar MultiCell.ue22.lteNic.rlc.um 	rlcPacketLossUl:mean 	-nan
attr source  rlcPacketLossUl
attr title  "rlc Packet Loss, mean"
attr unit  ""
scalar MultiCell.ue22.lteNic.rlc.um 	rlcCellPacketLossD2D:mean 	-nan
attr source  rlcCellPacketLossD2D
attr title  "rlc Cell Packet Loss, mean"
attr unit  ""
scalar MultiCell.ue22.lteNic.rlc.um 	rlcCellPacketLossUl:mean 	-nan
attr source  rlcCellPacketLossUl
attr title  "rlc Cell Packet Loss, mean"
attr unit  ""
scalar MultiCell.ue22.lteNic.rlc.um 	rlcCellPacketLossDl:mean 	-nan
attr source  rlcCellPacketLossDl
attr title  "rlc Cell Packet Loss, mean"
attr unit  ""
scalar MultiCell.ue22.lteNic.rlc.um 	rlcCellThroughputD2D:mean 	-nan
attr source  rlcCellThroughputD2D
attr title  "Cell Throughput at the rlc layer D2D, mean"
attr unit  Bps
scalar MultiCell.ue22.lteNic.rlc.um 	rlcCellThroughputDl:mean 	-nan
attr source  rlcCellThroughputDl
attr title  "Cell Throughput at the rlc layer DL, mean"
attr unit  Bps
scalar MultiCell.ue22.lteNic.rlc.um 	rlcCellThroughputUl:mean 	-nan
attr source  rlcCellThroughputUl
attr title  "Cell Throughput at the rlc layer UL, mean"
attr unit  Bps
scalar MultiCell.ue22.lteNic.rlc.um 	rlcPduThroughputD2D:mean 	-nan
attr source  rlcPduThroughputD2D
attr title  "Throughput at the rlc layer D2D, mean"
attr unit  Bps
scalar MultiCell.ue22.lteNic.rlc.um 	rlcPduDelayD2D:mean 	-nan
attr source  rlcPduDelayD2D
attr title  "Delay at the rlc layer D2D, mean"
attr unit  s
scalar MultiCell.ue22.lteNic.rlc.um 	rlcPduThroughputUl:mean 	-nan
attr source  rlcPduThroughputUl
attr title  "Throughput at the rlc layer UL, mean"
attr unit  Bps
scalar MultiCell.ue22.lteNic.rlc.um 	rlcPduDelayUl:mean 	-nan
attr source  rlcPduDelayUl
attr title  "Delay at the rlc layer UL, mean"
attr unit  s
scalar MultiCell.ue22.lteNic.rlc.um 	rlcPduThroughputDl:mean 	-nan
attr source  rlcPduThroughputDl
attr title  "Throughput at the rlc layer DL, mean"
attr unit  Bps
scalar MultiCell.ue22.lteNic.rlc.um 	rlcPduDelayDl:mean 	-nan
attr source  rlcPduDelayDl
attr title  "Delay at the rlc layer UL, mean"
attr unit  s
scalar MultiCell.ue22.lteNic.rlc.um 	rlcThroughputD2D:mean 	-nan
attr source  rlcThroughputD2D
attr title  "Throughput at the rlc layer D2D, mean"
attr unit  Bps
scalar MultiCell.ue22.lteNic.rlc.um 	rlcDelayD2D:mean 	-nan
attr source  rlcDelayD2D
attr title  "Delay at the rlc layer D2D, mean"
attr unit  s
scalar MultiCell.ue22.lteNic.rlc.um 	rlcThroughputUl:mean 	-nan
attr source  rlcThroughputUl
attr title  "Throughput at the rlc layer UL, mean"
attr unit  Bps
scalar MultiCell.ue22.lteNic.rlc.um 	rlcDelayUl:mean 	-nan
attr source  rlcDelayUl
attr title  "Delay at the rlc layer UL, mean"
attr unit  s
scalar MultiCell.ue22.lteNic.rlc.um 	rlcThroughputDl:mean 	-nan
attr source  rlcThroughputDl
attr title  "Throughput at the rlc layer DL, mean"
attr unit  Bps
scalar MultiCell.ue22.lteNic.rlc.um 	rlcDelayDl:mean 	-nan
attr source  rlcDelayDl
attr title  "Delay at the rlc layer UL, mean"
attr unit  s
scalar MultiCell.ue22.lteNic.rlc.am 	rlcPduPacketLossD2D:mean 	-nan
attr source  rlcPduPacketLossD2D
attr title  "rlc Packet Loss, mean"
attr unit  ""
scalar MultiCell.ue22.lteNic.rlc.am 	rlcPduPacketLossDl:mean 	-nan
attr source  rlcPduPacketLossDl
attr title  "rlc Packet Loss, mean"
attr unit  ""
scalar MultiCell.ue22.lteNic.rlc.am 	rlcPduPacketLossUl:mean 	-nan
attr source  rlcPduPacketLossUl
attr title  "rlc Packet Loss, mean"
attr unit  ""
scalar MultiCell.ue22.lteNic.rlc.am 	rlcPacketLossTotal:mean 	-nan
attr source  rlcPacketLossTotal
attr title  "rlc Packet Loss, mean"
attr unit  ""
scalar MultiCell.ue22.lteNic.rlc.am 	rlcPacketLossD2D:mean 	-nan
attr source  rlcPacketLossD2D
attr title  "rlc Packet Loss, mean"
attr unit  ""
scalar MultiCell.ue22.lteNic.rlc.am 	rlcPacketLossDl:mean 	-nan
attr source  rlcPacketLossDl
attr title  "rlc Packet Loss, mean"
attr unit  ""
scalar MultiCell.ue22.lteNic.rlc.am 	rlcPacketLossUl:mean 	-nan
attr source  rlcPacketLossUl
attr title  "rlc Packet Loss, mean"
attr unit  ""
scalar MultiCell.ue22.lteNic.rlc.am 	rlcCellPacketLossD2D:mean 	-nan
attr source  rlcCellPacketLossD2D
attr title  "rlc Cell Packet Loss, mean"
attr unit  ""
scalar MultiCell.ue22.lteNic.rlc.am 	rlcCellPacketLossUl:mean 	-nan
attr source  rlcCellPacketLossUl
attr title  "rlc Cell Packet Loss, mean"
attr unit  ""
scalar MultiCell.ue22.lteNic.rlc.am 	rlcCellPacketLossDl:mean 	-nan
attr source  rlcCellPacketLossDl
attr title  "rlc Cell Packet Loss, mean"
attr unit  ""
scalar MultiCell.ue22.lteNic.rlc.am 	rlcCellThroughputD2D:mean 	-nan
attr source  rlcCellThroughputD2D
attr title  "Cell Throughput at the rlc layer D2D, mean"
attr unit  Bps
scalar MultiCell.ue22.lteNic.rlc.am 	rlcCellThroughputDl:mean 	-nan
attr source  rlcCellThroughputDl
attr title  "Cell Throughput at the rlc layer DL, mean"
attr unit  Bps
scalar MultiCell.ue22.lteNic.rlc.am 	rlcCellThroughputUl:mean 	-nan
attr source  rlcCellThroughputUl
attr title  "Cell Throughput at the rlc layer UL, mean"
attr unit  Bps
scalar MultiCell.ue22.lteNic.rlc.am 	rlcPduThroughputD2D:mean 	-nan
attr source  rlcPduThroughputD2D
attr title  "Throughput at the rlc layer D2D, mean"
attr unit  Bps
scalar MultiCell.ue22.lteNic.rlc.am 	rlcPduDelayD2D:mean 	-nan
attr source  rlcPduDelayD2D
attr title  "Delay at the rlc layer D2D, mean"
attr unit  s
scalar MultiCell.ue22.lteNic.rlc.am 	rlcPduThroughputUl:mean 	-nan
attr source  rlcPduThroughputUl
attr title  "Throughput at the rlc layer UL, mean"
attr unit  Bps
scalar MultiCell.ue22.lteNic.rlc.am 	rlcPduDelayUl:mean 	-nan
attr source  rlcPduDelayUl
attr title  "Delay at the rlc layer UL, mean"
attr unit  s
scalar MultiCell.ue22.lteNic.rlc.am 	rlcPduThroughputDl:mean 	-nan
attr source  rlcPduThroughputDl
attr title  "Throughput at the rlc layer DL, mean"
attr unit  Bps
scalar MultiCell.ue22.lteNic.rlc.am 	rlcPduDelayDl:mean 	-nan
attr source  rlcPduDelayDl
attr title  "Delay at the rlc layer UL, mean"
attr unit  s
scalar MultiCell.ue22.lteNic.rlc.am 	rlcThroughputD2D:mean 	-nan
attr source  rlcThroughputD2D
attr title  "Throughput at the rlc layer D2D, mean"
attr unit  Bps
scalar MultiCell.ue22.lteNic.rlc.am 	rlcDelayD2D:mean 	-nan
attr source  rlcDelayD2D
attr title  "Delay at the rlc layer D2D, mean"
attr unit  s
scalar MultiCell.ue22.lteNic.rlc.am 	rlcThroughputUl:mean 	-nan
attr source  rlcThroughputUl
attr title  "Throughput at the rlc layer UL, mean"
attr unit  Bps
scalar MultiCell.ue22.lteNic.rlc.am 	rlcDelayUl:mean 	-nan
attr source  rlcDelayUl
attr title  "Delay at the rlc layer UL, mean"
attr unit  s
scalar MultiCell.ue22.lteNic.rlc.am 	rlcThroughputDl:mean 	-nan
attr source  rlcThroughputDl
attr title  "Throughput at the rlc layer DL, mean"
attr unit  Bps
scalar MultiCell.ue22.lteNic.rlc.am 	rlcDelayDl:mean 	-nan
attr source  rlcDelayDl
attr title  "Delay at the rlc layer UL, mean"
attr unit  s
scalar MultiCell.ue22.lteNic.mac 	cqiDlMuMimo4:mean 	-nan
attr source  cqiDlMuMimo4
attr title  "Average cqi MuMimo band 4, mean"
attr unit  cqi
scalar MultiCell.ue22.lteNic.mac 	cqiDlMuMimo3:mean 	-nan
attr source  cqiDlMuMimo3
attr title  "Average cqi MuMimo band 3, mean"
attr unit  cqi
scalar MultiCell.ue22.lteNic.mac 	cqiDlMuMimo2:mean 	-nan
attr source  cqiDlMuMimo2
attr title  "Average cqi MuMimo band 2, mean"
attr unit  cqi
scalar MultiCell.ue22.lteNic.mac 	cqiDlMuMimo1:mean 	-nan
attr source  cqiDlMuMimo1
attr title  "Average cqi MuMimo band 1, mean"
attr unit  cqi
scalar MultiCell.ue22.lteNic.mac 	cqiDlMuMimo0:mean 	-nan
attr source  cqiDlMuMimo0
attr title  "Average cqi MuMimo band 0, mean"
attr unit  cqi
scalar MultiCell.ue22.lteNic.mac 	cqiDlTxDiv4:mean 	-nan
attr source  cqiDlTxDiv4
attr title  "Average cqi TxDiv band 4, mean"
attr unit  cqi
scalar MultiCell.ue22.lteNic.mac 	cqiDlTxDiv3:mean 	-nan
attr source  cqiDlTxDiv3
attr title  "Average cqi TxDiv band 3, mean"
attr unit  cqi
scalar MultiCell.ue22.lteNic.mac 	cqiDlTxDiv2:mean 	-nan
attr source  cqiDlTxDiv2
attr title  "Average cqi TxDiv band 2, mean"
attr unit  cqi
scalar MultiCell.ue22.lteNic.mac 	cqiDlTxDiv1:mean 	-nan
attr source  cqiDlTxDiv1
attr title  "Average cqi TxDiv band 1, mean"
attr unit  cqi
scalar MultiCell.ue22.lteNic.mac 	cqiDlTxDiv0:mean 	-nan
attr source  cqiDlTxDiv0
attr title  "Average cqi TxDiv band 0, mean"
attr unit  cqi
scalar MultiCell.ue22.lteNic.mac 	cqiDlSpmux4:mean 	-nan
attr source  cqiDlSpmux4
attr title  "Average cqi Spmux band 4, mean"
attr unit  cqi
scalar MultiCell.ue22.lteNic.mac 	cqiDlSpmux3:mean 	-nan
attr source  cqiDlSpmux3
attr title  "Average cqi Spmux band 3, mean"
attr unit  cqi
scalar MultiCell.ue22.lteNic.mac 	cqiDlSpmux2:mean 	-nan
attr source  cqiDlSpmux2
attr title  "Average cqi Spmux band 2, mean"
attr unit  cqi
scalar MultiCell.ue22.lteNic.mac 	cqiDlSpmux1:mean 	-nan
attr source  cqiDlSpmux1
attr title  "Average cqi Spmux band 1, mean"
attr unit  cqi
scalar MultiCell.ue22.lteNic.mac 	cqiDlSpmux0:mean 	-nan
attr source  cqiDlSpmux0
attr title  "Average cqi Spmux band 0, mean"
attr unit  cqi
scalar MultiCell.ue22.lteNic.mac 	cqiDlSiso4:mean 	-nan
attr source  cqiDlSiso4
attr title  "Average cqi siso band 4, mean"
attr unit  cqi
scalar MultiCell.ue22.lteNic.mac 	cqiDlSiso3:mean 	-nan
attr source  cqiDlSiso3
attr title  "Average cqi siso band 3, mean"
attr unit  cqi
scalar MultiCell.ue22.lteNic.mac 	cqiDlSiso2:mean 	-nan
attr source  cqiDlSiso2
attr title  "Average cqi siso band 2, mean"
attr unit  cqi
scalar MultiCell.ue22.lteNic.mac 	cqiDlSiso1:mean 	-nan
attr source  cqiDlSiso1
attr title  "Average cqi siso band 1, mean"
attr unit  cqi
scalar MultiCell.ue22.lteNic.mac 	cqiDlSiso0:mean 	-nan
attr source  cqiDlSiso0
attr title  "Average cqi siso band 0, mean"
attr unit  cqi
scalar MultiCell.ue22.lteNic.mac 	measuredItbs:mean 	-nan
attr source  measuredItbs
attr title  "TBS index, mean"
attr unit  ""
scalar MultiCell.ue22.lteNic.mac 	harqErrorRate_4th_D2D:mean 	-nan
attr source  harqErrorRate_4th_D2D
attr title  "Harq Error Rate D2D, mean"
attr unit  ""
scalar MultiCell.ue22.lteNic.mac 	harqErrorRate_4th_Dl:mean 	-nan
attr source  harqErrorRate_4th_Dl
attr title  "Harq Error Rate Dl, mean"
attr unit  ""
scalar MultiCell.ue22.lteNic.mac 	harqErrorRate_4th_Ul:mean 	-nan
attr source  harqErrorRate_4th_Ul
attr title  "Harq Error Rate Dl, mean"
attr unit  ""
scalar MultiCell.ue22.lteNic.mac 	harqErrorRate_3rd_D2D:mean 	-nan
attr source  harqErrorRate_3rd_D2D
attr title  "Harq Error Rate D2D, mean"
attr unit  ""
scalar MultiCell.ue22.lteNic.mac 	harqErrorRate_3rd_Dl:mean 	-nan
attr source  harqErrorRate_3rd_Dl
attr title  "Harq Error Rate Dl, mean"
attr unit  ""
scalar MultiCell.ue22.lteNic.mac 	harqErrorRate_3rd_Ul:mean 	-nan
attr source  harqErrorRate_3rd_Ul
attr title  "Harq Error Rate Dl, mean"
attr unit  ""
scalar MultiCell.ue22.lteNic.mac 	harqErrorRate_2nd_D2D:mean 	-nan
attr source  harqErrorRate_2nd_D2D
attr title  "Harq Error Rate D2D, mean"
attr unit  ""
scalar MultiCell.ue22.lteNic.mac 	harqErrorRate_2nd_Dl:mean 	-nan
attr source  harqErrorRate_2nd_Dl
attr title  "Harq Error Rate Dl, mean"
attr unit  ""
scalar MultiCell.ue22.lteNic.mac 	harqErrorRate_2nd_Ul:mean 	-nan
attr source  harqErrorRate_2nd_Ul
attr title  "Harq Error Rate Dl, mean"
attr unit  ""
scalar MultiCell.ue22.lteNic.mac 	harqErrorRate_1st_D2D:mean 	-nan
attr source  harqErrorRate_1st_D2D
attr title  "Harq Error Rate D2D, mean"
attr unit  ""
scalar MultiCell.ue22.lteNic.mac 	harqErrorRate_1st_Dl:mean 	-nan
attr source  harqErrorRate_1st_Dl
attr title  "Harq Error Rate Dl, mean"
attr unit  ""
scalar MultiCell.ue22.lteNic.mac 	harqErrorRate_1st_Ul:mean 	-nan
attr source  harqErrorRate_1st_Ul
attr title  "Harq Error Rate Dl, mean"
attr unit  ""
scalar MultiCell.ue22.lteNic.mac 	harqErrorRateD2D:mean 	-nan
attr source  harqErrorRateD2D
attr title  "Harq Error Rate D2D, mean"
attr unit  ""
scalar MultiCell.ue22.lteNic.mac 	harqErrorRateDl:mean 	-nan
attr source  harqErrorRateDl
attr title  "Harq Error Rate Dl, mean"
attr unit  ""
scalar MultiCell.ue22.lteNic.mac 	harqErrorRateUl:mean 	-nan
attr source  harqErrorRateUl
attr title  "Harq Error Rate Dl, mean"
attr unit  ""
scalar MultiCell.ue22.lteNic.mac 	macBufferOverFlowD2D:mean 	-nan
attr source  macBufferOverFlowD2D
attr title  "Mac buffer overflow as function of time, mean"
attr unit  Byte/s
scalar MultiCell.ue22.lteNic.mac 	macBufferOverFlowUl:mean 	-nan
attr source  macBufferOverFlowUl
attr title  "Mac buffer overflow as function of time, mean"
attr unit  Byte/s
scalar MultiCell.ue22.lteNic.mac 	macBufferOverFlowDl:mean 	-nan
attr source  macBufferOverFlowDl
attr title  "Mac buffer overflow as function of time, mean"
attr unit  Byte/s
scalar MultiCell.ue22.lteNic.mac 	macPacketLossD2D:mean 	-nan
attr source  macPacketLossD2D
attr title  "Mac Packet Loss D2D, mean"
attr unit  ""
scalar MultiCell.ue22.lteNic.mac 	macPacketLossDl:mean 	-nan
attr source  macPacketLossDl
attr title  "Mac Packet Loss, mean"
attr unit  ""
scalar MultiCell.ue22.lteNic.mac 	macPacketLossUl:mean 	-nan
attr source  macPacketLossUl
attr title  "Mac Packet Loss, mean"
attr unit  ""
scalar MultiCell.ue22.lteNic.mac 	macCellPacketLossD2D:mean 	-nan
attr source  macCellPacketLossD2D
attr title  "Mac Cell Packet Loss D2D, mean"
attr unit  ""
scalar MultiCell.ue22.lteNic.mac 	macCellPacketLossUl:mean 	-nan
attr source  macCellPacketLossUl
attr title  "Mac Cell Packet Loss, mean"
attr unit  ""
scalar MultiCell.ue22.lteNic.mac 	macCellPacketLossDl:mean 	-nan
attr source  macCellPacketLossDl
attr title  "Mac Cell Packet Loss, mean"
attr unit  ""
scalar MultiCell.ue22.lteNic.mac 	macCellThroughputD2D:mean 	-nan
attr source  macCellThroughputD2D
attr title  "Cell Throughput at the MAC layer D2D, mean"
attr unit  Bps
scalar MultiCell.ue22.lteNic.mac 	macCellThroughputDl:mean 	-nan
attr source  macCellThroughputDl
attr title  "Cell Throughput at the MAC layer DL, mean"
attr unit  Bps
scalar MultiCell.ue22.lteNic.mac 	macCellThroughputUl:mean 	-nan
attr source  macCellThroughputUl
attr title  "Cell Throughput at the MAC layer UL, mean"
attr unit  Bps
scalar MultiCell.ue22.lteNic.mac 	macThroughputD2D:mean 	-nan
attr source  macThroughputD2D
attr title  "Throughput at the MAC layer D2D, mean"
attr unit  Bps
scalar MultiCell.ue22.lteNic.mac 	macDelayD2D:mean 	-nan
attr source  macDelayD2D
attr title  "Delay at the MAC layer D2D, mean"
attr unit  s
scalar MultiCell.ue22.lteNic.mac 	macThroughputUl:mean 	-nan
attr source  macThroughputUl
attr title  "Throughput at the MAC layer UL, mean"
attr unit  Bps
scalar MultiCell.ue22.lteNic.mac 	macDelayUl:mean 	-nan
attr source  macDelayUl
attr title  "Delay at the MAC layer UL, mean"
attr unit  s
scalar MultiCell.ue22.lteNic.mac 	macThroughputDl:mean 	-nan
attr source  macThroughputDl
attr title  "Throughput at the MAC layer DL, mean"
attr unit  Bps
scalar MultiCell.ue22.lteNic.mac 	macDelayDl:mean 	-nan
attr source  macDelayDl
attr title  "Delay at the MAC layer UL, mean"
attr unit  s
scalar MultiCell.ue22.lteNic.mac 	sentPacketToLowerLayer:count 	0
attr interpolationmode  none
attr source  sentPacketToLowerLayer
scalar MultiCell.ue22.lteNic.mac 	sentPacketToLowerLayer:sum(packetBytes) 	0
attr interpolationmode  none
attr source  sentPacketToLowerLayer
scalar MultiCell.ue22.lteNic.mac 	sentPacketToUpperLayer:count 	0
attr interpolationmode  none
attr source  sentPacketToUpperLayer
scalar MultiCell.ue22.lteNic.mac 	sentPacketToUpperLayer:sum(packetBytes) 	0
attr interpolationmode  none
attr source  sentPacketToUpperLayer
scalar MultiCell.ue22.lteNic.mac 	receivedPacketFromLowerLayer:count 	0
attr interpolationmode  none
attr source  receivedPacketFromLowerLayer
scalar MultiCell.ue22.lteNic.mac 	receivedPacketFromLowerLayer:sum(packetBytes) 	0
attr interpolationmode  none
attr source  receivedPacketFromLowerLayer
scalar MultiCell.ue22.lteNic.mac 	receivedPacketFromUpperLayer:count 	0
attr interpolationmode  none
attr source  receivedPacketFromUpperLayer
scalar MultiCell.ue22.lteNic.mac 	receivedPacketFromUpperLayer:sum(packetBytes) 	0
attr interpolationmode  none
attr source  receivedPacketFromUpperLayer
scalar MultiCell.ue22.lteNic.phy 	averageCqiUl:mean 	-nan
attr source  averageCqiUl
attr title  "Average Cqi reported in UL, mean"
attr unit  cqi
scalar MultiCell.ue22.lteNic.phy 	averageCqiDl:mean 	-nan
attr source  averageCqiDl
attr title  "Average Cqi reported in DL, mean"
attr unit  cqi
scalar MultiCell.ue22.networkLayer.arp 	failedARPResolution:count 	0
attr title  "ARP failed resolutions, count"
scalar MultiCell.ue22.networkLayer.arp 	completedARPResolution:count 	0
attr title  "ARP completed resolutions, count"
scalar MultiCell.ue22.networkLayer.arp 	initiatedARPResolution:count 	0
attr title  "ARP initiated resolutions, count"
scalar MultiCell.ue22.networkLayer.arp 	sentReply:count 	0
attr title  "ARP replies sent, count"
scalar MultiCell.ue22.networkLayer.arp 	sentReq:count 	0
attr title  "ARP request sent, count"
