file 142406 1547477653                                          
version 2
run General-0-20190114-15:21:17-20790
attr configname General
attr datetime 20190114-15:21:17
attr experiment General
attr inifile omnetpp.ini
attr iterationvars $numUEs=10
attr iterationvarsf numUEs=10-
attr measurement $numUEs=10
attr network ErlangenLTE
attr numUEs 10
attr processid 20790
attr repetition 0
attr replication #0
attr resultdir results
attr runnumber 0
attr seedset 0
param **.broadcastMessageInterval 0.5s
param **.car[*].macCellId 1
param **.car[*].masterId 1
param **.channelControl.alpha 1.0
param **.channelControl.carrierFrequency 2100e+6Hz
param **.channelControl.pMax 10W
param **.coreDebug false
param **.deployer.antennaCws "\"2;\""
param **.deployer.numRbDl 25
param **.deployer.numRbUl 25
param **.deployer.positionUpdateInterval 0.001s
param **.deployer.ruRange 50
param **.deployer.ruTxPower "\"50,50,50;\""
param **.dynamicCellAssociation true
param **.eNodeB*.mobility.constraintAreaMaxX 2500m
param **.eNodeB*.mobility.constraintAreaMaxY 2500m
param **.eNodeB*.mobility.constraintAreaMaxZ 0m
param **.eNodeB*.mobility.constraintAreaMinX 0m
param **.eNodeB*.mobility.constraintAreaMinY 0m
param **.eNodeB*.mobility.constraintAreaMinZ 0m
param **.eNodeB*.mobility.initFromDisplayString true
param **.eNodeB1.macCellId 1
param **.eNodeB1.macNodeId 1
param **.eNodeB10.macCellId 10
param **.eNodeB10.macNodeId 10
param **.eNodeB11.macCellId 11
param **.eNodeB11.macNodeId 11
param **.eNodeB12.macCellId 12
param **.eNodeB12.macNodeId 12
param **.eNodeB13.macCellId 13
param **.eNodeB13.macNodeId 13
param **.eNodeB14.macCellId 14
param **.eNodeB14.macNodeId 14
param **.eNodeB15.macCellId 15
param **.eNodeB15.macNodeId 15
param **.eNodeB16.macCellId 16
param **.eNodeB16.macNodeId 16
param **.eNodeB17.macCellId 17
param **.eNodeB17.macNodeId 17
param **.eNodeB18.macCellId 18
param **.eNodeB18.macNodeId 18
param **.eNodeB19.macCellId 19
param **.eNodeB19.macNodeId 19
param **.eNodeB2.macCellId 2
param **.eNodeB2.macNodeId 2
param **.eNodeB20.macCellId 20
param **.eNodeB20.macNodeId 20
param **.eNodeB21.macCellId 21
param **.eNodeB21.macNodeId 21
param **.eNodeB22.macCellId 22
param **.eNodeB22.macNodeId 22
param **.eNodeB23.macCellId 23
param **.eNodeB23.macNodeId 23
param **.eNodeB24.macCellId 24
param **.eNodeB24.macNodeId 24
param **.eNodeB25.macCellId 25
param **.eNodeB25.macNodeId 25
param **.eNodeB26.macCellId 26
param **.eNodeB26.macNodeId 26
param **.eNodeB27.macCellId 27
param **.eNodeB27.macNodeId 27
param **.eNodeB28.macCellId 28
param **.eNodeB28.macNodeId 28
param **.eNodeB29.macCellId 29
param **.eNodeB29.macNodeId 29
param **.eNodeB3.macCellId 3
param **.eNodeB3.macNodeId 3
param **.eNodeB30.macCellId 30
param **.eNodeB30.macNodeId 30
param **.eNodeB31.macCellId 31
param **.eNodeB31.macNodeId 31
param **.eNodeB32.macCellId 32
param **.eNodeB32.macNodeId 32
param **.eNodeB33.macCellId 33
param **.eNodeB33.macNodeId 33
param **.eNodeB34.macCellId 34
param **.eNodeB34.macNodeId 34
param **.eNodeB35.macCellId 35
param **.eNodeB35.macNodeId 35
param **.eNodeB36.macCellId 36
param **.eNodeB36.macNodeId 36
param **.eNodeB37.macCellId 37
param **.eNodeB37.macNodeId 37
param **.eNodeB38.macCellId 38
param **.eNodeB38.macNodeId 38
param **.eNodeB39.macCellId 39
param **.eNodeB39.macNodeId 39
param **.eNodeB4.macCellId 4
param **.eNodeB4.macNodeId 4
param **.eNodeB40.macCellId 40
param **.eNodeB40.macNodeId 40
param **.eNodeB41.macCellId 41
param **.eNodeB41.macNodeId 41
param **.eNodeB42.macCellId 42
param **.eNodeB42.macNodeId 42
param **.eNodeB43.macCellId 43
param **.eNodeB43.macNodeId 43
param **.eNodeB44.macCellId 44
param **.eNodeB44.macNodeId 44
param **.eNodeB45.macCellId 45
param **.eNodeB45.macNodeId 45
param **.eNodeB46.macCellId 46
param **.eNodeB46.macNodeId 46
param **.eNodeB47.macCellId 47
param **.eNodeB47.macNodeId 47
param **.eNodeB48.macCellId 48
param **.eNodeB48.macNodeId 48
param **.eNodeB49.macCellId 49
param **.eNodeB49.macNodeId 49
param **.eNodeB5.macCellId 5
param **.eNodeB5.macNodeId 5
param **.eNodeB50.macCellId 50
param **.eNodeB50.macNodeId 50
param **.eNodeB51.macCellId 51
param **.eNodeB51.macNodeId 51
param **.eNodeB52.macCellId 52
param **.eNodeB52.macNodeId 52
param **.eNodeB53.macCellId 53
param **.eNodeB53.macNodeId 53
param **.eNodeB54.macCellId 54
param **.eNodeB54.macNodeId 54
param **.eNodeB55.macCellId 55
param **.eNodeB55.macNodeId 55
param **.eNodeB56.macCellId 56
param **.eNodeB56.macNodeId 56
param **.eNodeB57.macCellId 57
param **.eNodeB57.macNodeId 57
param **.eNodeB58.macCellId 58
param **.eNodeB58.macNodeId 58
param **.eNodeB59.macCellId 59
param **.eNodeB59.macNodeId 59
param **.eNodeB6.macCellId 6
param **.eNodeB6.macNodeId 6
param **.eNodeB60.macCellId 60
param **.eNodeB60.macNodeId 60
param **.eNodeB61.macCellId 61
param **.eNodeB61.macNodeId 61
param **.eNodeB62.macCellId 62
param **.eNodeB62.macNodeId 62
param **.eNodeB63.macCellId 63
param **.eNodeB63.macNodeId 63
param **.eNodeB64.macCellId 64
param **.eNodeB64.macNodeId 64
param **.eNodeB65.macCellId 65
param **.eNodeB65.macNodeId 65
param **.eNodeB66.macCellId 66
param **.eNodeB66.macNodeId 66
param **.eNodeB7.macCellId 7
param **.eNodeB7.macNodeId 7
param **.eNodeB8.macCellId 8
param **.eNodeB8.macNodeId 8
param **.eNodeB9.macCellId 9
param **.eNodeB9.macNodeId 9
param **.eNodeBCount 66
param **.enableHandover true
param **.fbDelay 1
param **.feedbackComputation "xmldoc(\"config_channel.xml\")"
param **.feedbackGeneratorType "\"IDEAL\""
param **.feedbackType "\"ALLBANDS\""
param **.lteNic.phy.channelModel "xmldoc(\"config_channel.xml\")"
param **.maxHarqRtx 3
param **.numBands 25
param **.numUe 10
param **.rbAllocationType "\"localized\""
param **.routingRecorder.enabled false
param **.sctp.enableHeartbeats false
param **.sctp.nagleEnabled false
param *.annotations.draw true
param *.car[*].configurator.mcastGroups "\"224.0.0.10\""
param *.car[*].mobilityType "\"VeinsInetMobility\""
param *.eNodeB*.x2App[*].server.localPort "5000 + ancestorIndex(1)"
param *.eNodeB1.numX2Apps 5
param *.eNodeB1.x2App[0].client.connectAddress "\"eNodeB22%x2ppp0\""
param *.eNodeB1.x2App[1].client.connectAddress "\"eNodeB41%x2ppp0\""
param *.eNodeB1.x2App[2].client.connectAddress "\"eNodeB50%x2ppp0\""
param *.eNodeB1.x2App[3].client.connectAddress "\"eNodeB14%x2ppp0\""
param *.eNodeB1.x2App[4].client.connectAddress "\"eNodeB43%x2ppp0\""
param *.eNodeB10.numX2Apps 5
param *.eNodeB10.x2App[0].client.connectAddress "\"eNodeB13%x2ppp1\""
param *.eNodeB10.x2App[1].client.connectAddress "\"eNodeB57%x2ppp0\""
param *.eNodeB10.x2App[2].client.connectAddress "\"eNodeB63%x2ppp0\""
param *.eNodeB10.x2App[3].client.connectAddress "\"eNodeB47%x2ppp2\""
param *.eNodeB10.x2App[4].client.connectAddress "\"eNodeB64%x2ppp0\""
param *.eNodeB11.numX2Apps 3
param *.eNodeB11.x2App[0].client.connectAddress "\"eNodeB22%x2ppp1\""
param *.eNodeB11.x2App[1].client.connectAddress "\"eNodeB40%x2ppp0\""
param *.eNodeB11.x2App[2].client.connectAddress "\"eNodeB54%x2ppp0\""
param *.eNodeB12.numX2Apps 3
param *.eNodeB12.x2App[0].client.connectAddress "\"eNodeB3%x2ppp0\""
param *.eNodeB12.x2App[1].client.connectAddress "\"eNodeB30%x2ppp1\""
param *.eNodeB12.x2App[2].client.connectAddress "\"eNodeB62%x2ppp1\""
param *.eNodeB13.numX2Apps 7
param *.eNodeB13.x2App[0].client.connectAddress "\"eNodeB8%x2ppp1\""
param *.eNodeB13.x2App[1].client.connectAddress "\"eNodeB10%x2ppp0\""
param *.eNodeB13.x2App[2].client.connectAddress "\"eNodeB31%x2ppp1\""
param *.eNodeB13.x2App[3].client.connectAddress "\"eNodeB63%x2ppp1\""
param *.eNodeB13.x2App[4].client.connectAddress "\"eNodeB35%x2ppp0\""
param *.eNodeB13.x2App[5].client.connectAddress "\"eNodeB47%x2ppp3\""
param *.eNodeB13.x2App[6].client.connectAddress "\"eNodeB57%x2ppp1\""
param *.eNodeB14.numX2Apps 4
param *.eNodeB14.x2App[0].client.connectAddress "\"eNodeB1%x2ppp0\""
param *.eNodeB14.x2App[1].client.connectAddress "\"eNodeB41%x2ppp1\""
param *.eNodeB14.x2App[2].client.connectAddress "\"eNodeB66%x2ppp0\""
param *.eNodeB14.x2App[3].client.connectAddress "\"eNodeB22%x2ppp2\""
param *.eNodeB15.numX2Apps 4
param *.eNodeB15.x2App[0].client.connectAddress "\"eNodeB28%x2ppp0\""
param *.eNodeB15.x2App[1].client.connectAddress "\"eNodeB60%x2ppp0\""
param *.eNodeB15.x2App[2].client.connectAddress "\"eNodeB64%x2ppp1\""
param *.eNodeB15.x2App[3].client.connectAddress "\"eNodeB16%x2ppp0\""
param *.eNodeB16.numX2Apps 3
param *.eNodeB16.x2App[0].client.connectAddress "\"eNodeB15%x2ppp0\""
param *.eNodeB16.x2App[1].client.connectAddress "\"eNodeB59%x2ppp0\""
param *.eNodeB16.x2App[2].client.connectAddress "\"eNodeB61%x2ppp0\""
param *.eNodeB17.numX2Apps 4
param *.eNodeB17.x2App[0].client.connectAddress "\"eNodeB4%x2ppp0\""
param *.eNodeB17.x2App[1].client.connectAddress "\"eNodeB20%x2ppp1\""
param *.eNodeB17.x2App[2].client.connectAddress "\"eNodeB49%x2ppp1\""
param *.eNodeB17.x2App[3].client.connectAddress "\"eNodeB56%x2ppp0\""
param *.eNodeB18.numX2Apps 3
param *.eNodeB18.x2App[0].client.connectAddress "\"eNodeB19%x2ppp0\""
param *.eNodeB18.x2App[1].client.connectAddress "\"eNodeB40%x2ppp1\""
param *.eNodeB18.x2App[2].client.connectAddress "\"eNodeB48%x2ppp0\""
param *.eNodeB19.numX2Apps 3
param *.eNodeB19.x2App[0].client.connectAddress "\"eNodeB18%x2ppp0\""
param *.eNodeB19.x2App[1].client.connectAddress "\"eNodeB35%x2ppp1\""
param *.eNodeB19.x2App[2].client.connectAddress "\"eNodeB48%x2ppp1\""
param *.eNodeB2.numX2Apps 3
param *.eNodeB2.x2App[0].client.connectAddress "\"eNodeB5%x2ppp0\""
param *.eNodeB2.x2App[1].client.connectAddress "\"eNodeB7%x2ppp0\""
param *.eNodeB2.x2App[2].client.connectAddress "\"eNodeB32%x2ppp0\""
param *.eNodeB20.numX2Apps 4
param *.eNodeB20.x2App[0].client.connectAddress "\"eNodeB4%x2ppp1\""
param *.eNodeB20.x2App[1].client.connectAddress "\"eNodeB17%x2ppp1\""
param *.eNodeB20.x2App[2].client.connectAddress "\"eNodeB49%x2ppp2\""
param *.eNodeB20.x2App[3].client.connectAddress "\"eNodeB55%x2ppp1\""
param *.eNodeB21.numX2Apps 3
param *.eNodeB21.x2App[0].client.connectAddress "\"eNodeB23%x2ppp0\""
param *.eNodeB21.x2App[1].client.connectAddress "\"eNodeB36%x2ppp0\""
param *.eNodeB21.x2App[2].client.connectAddress "\"eNodeB38%x2ppp0\""
param *.eNodeB22.numX2Apps 6
param *.eNodeB22.x2App[0].client.connectAddress "\"eNodeB1%x2ppp1\""
param *.eNodeB22.x2App[1].client.connectAddress "\"eNodeB11%x2ppp0\""
param *.eNodeB22.x2App[2].client.connectAddress "\"eNodeB14%x2ppp1\""
param *.eNodeB22.x2App[3].client.connectAddress "\"eNodeB54%x2ppp1\""
param *.eNodeB22.x2App[4].client.connectAddress "\"eNodeB43%x2ppp1\""
param *.eNodeB22.x2App[5].client.connectAddress "\"eNodeB66%x2ppp1\""
param *.eNodeB23.numX2Apps 4
param *.eNodeB23.x2App[0].client.connectAddress "\"eNodeB21%x2ppp0\""
param *.eNodeB23.x2App[1].client.connectAddress "\"eNodeB36%x2ppp1\""
param *.eNodeB23.x2App[2].client.connectAddress "\"eNodeB38%x2ppp1\""
param *.eNodeB23.x2App[3].client.connectAddress "\"eNodeB44%x2ppp0\""
param *.eNodeB24.numX2Apps 4
param *.eNodeB24.x2App[0].client.connectAddress "\"eNodeB59%x2ppp1\""
param *.eNodeB24.x2App[1].client.connectAddress "\"eNodeB60%x2ppp1\""
param *.eNodeB24.x2App[2].client.connectAddress "\"eNodeB65%x2ppp0\""
param *.eNodeB24.x2App[3].client.connectAddress "\"eNodeB39%x2ppp0\""
param *.eNodeB25.numX2Apps 3
param *.eNodeB25.x2App[0].client.connectAddress "\"eNodeB5%x2ppp1\""
param *.eNodeB25.x2App[1].client.connectAddress "\"eNodeB46%x2ppp1\""
param *.eNodeB25.x2App[2].client.connectAddress "\"eNodeB52%x2ppp0\""
param *.eNodeB26.numX2Apps 3
param *.eNodeB26.x2App[0].client.connectAddress "\"eNodeB39%x2ppp1\""
param *.eNodeB26.x2App[1].client.connectAddress "\"eNodeB59%x2ppp2\""
param *.eNodeB26.x2App[2].client.connectAddress "\"eNodeB61%x2ppp1\""
param *.eNodeB27.numX2Apps 3
param *.eNodeB27.x2App[0].client.connectAddress "\"eNodeB9%x2ppp0\""
param *.eNodeB27.x2App[1].client.connectAddress "\"eNodeB34%x2ppp2\""
param *.eNodeB27.x2App[2].client.connectAddress "\"eNodeB58%x2ppp1\""
param *.eNodeB28.numX2Apps 4
param *.eNodeB28.x2App[0].client.connectAddress "\"eNodeB15%x2ppp1\""
param *.eNodeB28.x2App[1].client.connectAddress "\"eNodeB60%x2ppp2\""
param *.eNodeB28.x2App[2].client.connectAddress "\"eNodeB64%x2ppp2\""
param *.eNodeB28.x2App[3].client.connectAddress "\"eNodeB65%x2ppp1\""
param *.eNodeB29.numX2Apps 3
param *.eNodeB29.x2App[0].client.connectAddress "\"eNodeB51%x2ppp0\""
param *.eNodeB29.x2App[1].client.connectAddress "\"eNodeB52%x2ppp1\""
param *.eNodeB29.x2App[2].client.connectAddress "\"eNodeB53%x2ppp0\""
param *.eNodeB3.numX2Apps 6
param *.eNodeB3.x2App[0].client.connectAddress "\"eNodeB12%x2ppp0\""
param *.eNodeB3.x2App[1].client.connectAddress "\"eNodeB46%x2ppp0\""
param *.eNodeB3.x2App[2].client.connectAddress "\"eNodeB62%x2ppp0\""
param *.eNodeB3.x2App[3].client.connectAddress "\"eNodeB30%x2ppp0\""
param *.eNodeB3.x2App[4].client.connectAddress "\"eNodeB32%x2ppp1\""
param *.eNodeB3.x2App[5].client.connectAddress "\"eNodeB55%x2ppp0\""
param *.eNodeB30.numX2Apps 4
param *.eNodeB30.x2App[0].client.connectAddress "\"eNodeB12%x2ppp1\""
param *.eNodeB30.x2App[1].client.connectAddress "\"eNodeB3%x2ppp1\""
param *.eNodeB30.x2App[2].client.connectAddress "\"eNodeB32%x2ppp2\""
param *.eNodeB30.x2App[3].client.connectAddress "\"eNodeB62%x2ppp2\""
param *.eNodeB31.numX2Apps 4
param *.eNodeB31.x2App[0].client.connectAddress "\"eNodeB8%x2ppp2\""
param *.eNodeB31.x2App[1].client.connectAddress "\"eNodeB13%x2ppp2\""
param *.eNodeB31.x2App[2].client.connectAddress "\"eNodeB63%x2ppp2\""
param *.eNodeB31.x2App[3].client.connectAddress "\"eNodeB35%x2ppp2\""
param *.eNodeB32.numX2Apps 4
param *.eNodeB32.x2App[0].client.connectAddress "\"eNodeB2%x2ppp2\""
param *.eNodeB32.x2App[1].client.connectAddress "\"eNodeB30%x2ppp2\""
param *.eNodeB32.x2App[2].client.connectAddress "\"eNodeB3%x2ppp2\""
param *.eNodeB32.x2App[3].client.connectAddress "\"eNodeB46%x2ppp2\""
param *.eNodeB33.numX2Apps 3
param *.eNodeB33.x2App[0].client.connectAddress "\"eNodeB6%x2ppp0\""
param *.eNodeB33.x2App[1].client.connectAddress "\"eNodeB45%x2ppp1\""
param *.eNodeB33.x2App[2].client.connectAddress "\"eNodeB51%x2ppp1\""
param *.eNodeB34.numX2Apps 4
param *.eNodeB34.x2App[0].client.connectAddress "\"eNodeB5%x2ppp2\""
param *.eNodeB34.x2App[1].client.connectAddress "\"eNodeB9%x2ppp1\""
param *.eNodeB34.x2App[2].client.connectAddress "\"eNodeB27%x2ppp1\""
param *.eNodeB34.x2App[3].client.connectAddress "\"eNodeB53%x2ppp1\""
param *.eNodeB35.numX2Apps 4
param *.eNodeB35.x2App[0].client.connectAddress "\"eNodeB19%x2ppp1\""
param *.eNodeB35.x2App[1].client.connectAddress "\"eNodeB13%x2ppp3\""
param *.eNodeB35.x2App[2].client.connectAddress "\"eNodeB31%x2ppp2\""
param *.eNodeB35.x2App[3].client.connectAddress "\"eNodeB63%x2ppp3\""
param *.eNodeB36.numX2Apps 4
param *.eNodeB36.x2App[0].client.connectAddress "\"eNodeB21%x2ppp1\""
param *.eNodeB36.x2App[1].client.connectAddress "\"eNodeB23%x2ppp1\""
param *.eNodeB36.x2App[2].client.connectAddress "\"eNodeB38%x2ppp2\""
param *.eNodeB36.x2App[3].client.connectAddress "\"eNodeB44%x2ppp1\""
param *.eNodeB37.numX2Apps 4
param *.eNodeB37.x2App[0].client.connectAddress "\"eNodeB6%x2ppp1\""
param *.eNodeB37.x2App[1].client.connectAddress "\"eNodeB42%x2ppp1\""
param *.eNodeB37.x2App[2].client.connectAddress "\"eNodeB45%x2ppp2\""
param *.eNodeB37.x2App[3].client.connectAddress "\"eNodeB50%x2ppp2\""
param *.eNodeB38.numX2Apps 4
param *.eNodeB38.x2App[0].client.connectAddress "\"eNodeB21%x2ppp2\""
param *.eNodeB38.x2App[1].client.connectAddress "\"eNodeB23%x2ppp2\""
param *.eNodeB38.x2App[2].client.connectAddress "\"eNodeB36%x2ppp2\""
param *.eNodeB38.x2App[3].client.connectAddress "\"eNodeB44%x2ppp2\""
param *.eNodeB39.numX2Apps 4
param *.eNodeB39.x2App[0].client.connectAddress "\"eNodeB26%x2ppp0\""
param *.eNodeB39.x2App[1].client.connectAddress "\"eNodeB24%x2ppp0\""
param *.eNodeB39.x2App[2].client.connectAddress "\"eNodeB59%x2ppp3\""
param *.eNodeB39.x2App[3].client.connectAddress "\"eNodeB61%x2ppp2\""
param *.eNodeB4.numX2Apps 3
param *.eNodeB4.x2App[0].client.connectAddress "\"eNodeB17%x2ppp0\""
param *.eNodeB4.x2App[1].client.connectAddress "\"eNodeB20%x2ppp0\""
param *.eNodeB4.x2App[2].client.connectAddress "\"eNodeB49%x2ppp0\""
param *.eNodeB40.numX2Apps 4
param *.eNodeB40.x2App[0].client.connectAddress "\"eNodeB11%x2ppp1\""
param *.eNodeB40.x2App[1].client.connectAddress "\"eNodeB18%x2ppp1\""
param *.eNodeB40.x2App[2].client.connectAddress "\"eNodeB54%x2ppp2\""
param *.eNodeB40.x2App[3].client.connectAddress "\"eNodeB48%x2ppp2\""
param *.eNodeB41.numX2Apps 4
param *.eNodeB41.x2App[0].client.connectAddress "\"eNodeB1%x2ppp2\""
param *.eNodeB41.x2App[1].client.connectAddress "\"eNodeB14%x2ppp2\""
param *.eNodeB41.x2App[2].client.connectAddress "\"eNodeB50%x2ppp3\""
param *.eNodeB41.x2App[3].client.connectAddress "\"eNodeB66%x2ppp2\""
param *.eNodeB42.numX2Apps 3
param *.eNodeB42.x2App[0].client.connectAddress "\"eNodeB37%x2ppp1\""
param *.eNodeB42.x2App[1].client.connectAddress "\"eNodeB6%x2ppp2\""
param *.eNodeB42.x2App[2].client.connectAddress "\"eNodeB50%x2ppp4\""
param *.eNodeB43.numX2Apps 3
param *.eNodeB43.x2App[0].client.connectAddress "\"eNodeB1%x2ppp3\""
param *.eNodeB43.x2App[1].client.connectAddress "\"eNodeB22%x2ppp3\""
param *.eNodeB43.x2App[2].client.connectAddress "\"eNodeB50%x2ppp5\""
param *.eNodeB44.numX2Apps 3
param *.eNodeB44.x2App[0].client.connectAddress "\"eNodeB23%x2ppp3\""
param *.eNodeB44.x2App[1].client.connectAddress "\"eNodeB36%x2ppp3\""
param *.eNodeB44.x2App[2].client.connectAddress "\"eNodeB38%x2ppp3\""
param *.eNodeB45.numX2Apps 4
param *.eNodeB45.x2App[0].client.connectAddress "\"eNodeB6%x2ppp3\""
param *.eNodeB45.x2App[1].client.connectAddress "\"eNodeB33%x2ppp1\""
param *.eNodeB45.x2App[2].client.connectAddress "\"eNodeB37%x2ppp2\""
param *.eNodeB45.x2App[3].client.connectAddress "\"eNodeB50%x2ppp6\""
param *.eNodeB46.numX2Apps 4
param *.eNodeB46.x2App[0].client.connectAddress "\"eNodeB3%x2ppp3\""
param *.eNodeB46.x2App[1].client.connectAddress "\"eNodeB25%x2ppp1\""
param *.eNodeB46.x2App[2].client.connectAddress "\"eNodeB32%x2ppp3\""
param *.eNodeB46.x2App[3].client.connectAddress "\"eNodeB55%x2ppp2\""
param *.eNodeB47.numX2Apps 4
param *.eNodeB47.x2App[0].client.connectAddress "\"eNodeB7%x2ppp2\""
param *.eNodeB47.x2App[1].client.connectAddress "\"eNodeB8%x2ppp3\""
param *.eNodeB47.x2App[2].client.connectAddress "\"eNodeB10%x2ppp1\""
param *.eNodeB47.x2App[3].client.connectAddress "\"eNodeB13%x2ppp4\""
param *.eNodeB48.numX2Apps 3
param *.eNodeB48.x2App[0].client.connectAddress "\"eNodeB18%x2ppp2\""
param *.eNodeB48.x2App[1].client.connectAddress "\"eNodeB19%x2ppp2\""
param *.eNodeB48.x2App[2].client.connectAddress "\"eNodeB40%x2ppp2\""
param *.eNodeB49.numX2Apps 4
param *.eNodeB49.x2App[0].client.connectAddress "\"eNodeB4%x2ppp2\""
param *.eNodeB49.x2App[1].client.connectAddress "\"eNodeB17%x2ppp2\""
param *.eNodeB49.x2App[2].client.connectAddress "\"eNodeB20%x2ppp2\""
param *.eNodeB49.x2App[3].client.connectAddress "\"eNodeB56%x2ppp1\""
param *.eNodeB5.numX2Apps 3
param *.eNodeB5.x2App[0].client.connectAddress "\"eNodeB2%x2ppp0\""
param *.eNodeB5.x2App[1].client.connectAddress "\"eNodeB25%x2ppp0\""
param *.eNodeB5.x2App[2].client.connectAddress "\"eNodeB34%x2ppp0\""
param *.eNodeB50.numX2Apps 7
param *.eNodeB50.x2App[0].client.connectAddress "\"eNodeB1%x2ppp4\""
param *.eNodeB50.x2App[1].client.connectAddress "\"eNodeB6%x2ppp4\""
param *.eNodeB50.x2App[2].client.connectAddress "\"eNodeB41%x2ppp2\""
param *.eNodeB50.x2App[3].client.connectAddress "\"eNodeB42%x2ppp2\""
param *.eNodeB50.x2App[4].client.connectAddress "\"eNodeB43%x2ppp2\""
param *.eNodeB50.x2App[5].client.connectAddress "\"eNodeB45%x2ppp3\""
param *.eNodeB50.x2App[6].client.connectAddress "\"eNodeB37%x2ppp3\""
param *.eNodeB51.numX2Apps 4
param *.eNodeB51.x2App[0].client.connectAddress "\"eNodeB29%x2ppp0\""
param *.eNodeB51.x2App[1].client.connectAddress "\"eNodeB33%x2ppp2\""
param *.eNodeB51.x2App[2].client.connectAddress "\"eNodeB52%x2ppp2\""
param *.eNodeB51.x2App[3].client.connectAddress "\"eNodeB56%x2ppp2\""
param *.eNodeB52.numX2Apps 4
param *.eNodeB52.x2App[0].client.connectAddress "\"eNodeB25%x2ppp2\""
param *.eNodeB52.x2App[1].client.connectAddress "\"eNodeB29%x2ppp1\""
param *.eNodeB52.x2App[2].client.connectAddress "\"eNodeB51%x2ppp2\""
param *.eNodeB52.x2App[3].client.connectAddress "\"eNodeB53%x2ppp2\""
param *.eNodeB53.numX2Apps 3
param *.eNodeB53.x2App[0].client.connectAddress "\"eNodeB29%x2ppp2\""
param *.eNodeB53.x2App[1].client.connectAddress "\"eNodeB34%x2ppp3\""
param *.eNodeB53.x2App[2].client.connectAddress "\"eNodeB52%x2ppp3\""
param *.eNodeB54.numX2Apps 3
param *.eNodeB54.x2App[0].client.connectAddress "\"eNodeB11%x2ppp2\""
param *.eNodeB54.x2App[1].client.connectAddress "\"eNodeB22%x2ppp4\""
param *.eNodeB54.x2App[2].client.connectAddress "\"eNodeB40%x2ppp3\""
param *.eNodeB55.numX2Apps 3
param *.eNodeB55.x2App[0].client.connectAddress "\"eNodeB46%x2ppp3\""
param *.eNodeB55.x2App[1].client.connectAddress "\"eNodeB3%x2ppp4\""
param *.eNodeB55.x2App[2].client.connectAddress "\"eNodeB20%x2ppp3\""
param *.eNodeB56.numX2Apps 3
param *.eNodeB56.x2App[0].client.connectAddress "\"eNodeB17%x2ppp3\""
param *.eNodeB56.x2App[1].client.connectAddress "\"eNodeB49%x2ppp3\""
param *.eNodeB56.x2App[2].client.connectAddress "\"eNodeB51%x2ppp3\""
param *.eNodeB57.numX2Apps 3
param *.eNodeB57.x2App[0].client.connectAddress "\"eNodeB10%x2ppp2\""
param *.eNodeB57.x2App[1].client.connectAddress "\"eNodeB13%x2ppp5\""
param *.eNodeB57.x2App[2].client.connectAddress "\"eNodeB63%x2ppp4\""
param *.eNodeB58.numX2Apps 3
param *.eNodeB58.x2App[0].client.connectAddress "\"eNodeB9%x2ppp2\""
param *.eNodeB58.x2App[1].client.connectAddress "\"eNodeB27%x2ppp2\""
param *.eNodeB58.x2App[2].client.connectAddress "\"eNodeB66%x2ppp3\""
param *.eNodeB59.numX2Apps 7
param *.eNodeB59.x2App[0].client.connectAddress "\"eNodeB16%x2ppp1\""
param *.eNodeB59.x2App[1].client.connectAddress "\"eNodeB24%x2ppp1\""
param *.eNodeB59.x2App[2].client.connectAddress "\"eNodeB26%x2ppp1\""
param *.eNodeB59.x2App[3].client.connectAddress "\"eNodeB39%x2ppp2\""
param *.eNodeB59.x2App[4].client.connectAddress "\"eNodeB60%x2ppp3\""
param *.eNodeB59.x2App[5].client.connectAddress "\"eNodeB65%x2ppp2\""
param *.eNodeB59.x2App[6].client.connectAddress "\"eNodeB61%x2ppp3\""
param *.eNodeB6.numX2Apps 5
param *.eNodeB6.x2App[0].client.connectAddress "\"eNodeB37%x2ppp0\""
param *.eNodeB6.x2App[1].client.connectAddress "\"eNodeB45%x2ppp0\""
param *.eNodeB6.x2App[2].client.connectAddress "\"eNodeB50%x2ppp1\""
param *.eNodeB6.x2App[3].client.connectAddress "\"eNodeB33%x2ppp0\""
param *.eNodeB6.x2App[4].client.connectAddress "\"eNodeB42%x2ppp0\""
param *.eNodeB60.numX2Apps 5
param *.eNodeB60.x2App[0].client.connectAddress "\"eNodeB15%x2ppp2\""
param *.eNodeB60.x2App[1].client.connectAddress "\"eNodeB24%x2ppp2\""
param *.eNodeB60.x2App[2].client.connectAddress "\"eNodeB28%x2ppp1\""
param *.eNodeB60.x2App[3].client.connectAddress "\"eNodeB59%x2ppp4\""
param *.eNodeB60.x2App[4].client.connectAddress "\"eNodeB65%x2ppp3\""
param *.eNodeB61.numX2Apps 4
param *.eNodeB61.x2App[0].client.connectAddress "\"eNodeB16%x2ppp2\""
param *.eNodeB61.x2App[1].client.connectAddress "\"eNodeB26%x2ppp2\""
param *.eNodeB61.x2App[2].client.connectAddress "\"eNodeB39%x2ppp3\""
param *.eNodeB61.x2App[3].client.connectAddress "\"eNodeB59%x2ppp5\""
param *.eNodeB62.numX2Apps 3
param *.eNodeB62.x2App[0].client.connectAddress "\"eNodeB3%x2ppp5\""
param *.eNodeB62.x2App[1].client.connectAddress "\"eNodeB12%x2ppp2\""
param *.eNodeB62.x2App[2].client.connectAddress "\"eNodeB30%x2ppp3\""
param *.eNodeB63.numX2Apps 5
param *.eNodeB63.x2App[0].client.connectAddress "\"eNodeB10%x2ppp3\""
param *.eNodeB63.x2App[1].client.connectAddress "\"eNodeB13%x2ppp6\""
param *.eNodeB63.x2App[2].client.connectAddress "\"eNodeB31%x2ppp3\""
param *.eNodeB63.x2App[3].client.connectAddress "\"eNodeB35%x2ppp3\""
param *.eNodeB63.x2App[4].client.connectAddress "\"eNodeB57%x2ppp2\""
param *.eNodeB64.numX2Apps 3
param *.eNodeB64.x2App[0].client.connectAddress "\"eNodeB15%x2ppp3\""
param *.eNodeB64.x2App[1].client.connectAddress "\"eNodeB28%x2ppp2\""
param *.eNodeB64.x2App[2].client.connectAddress "\"eNodeB10%x2ppp4\""
param *.eNodeB65.numX2Apps 4
param *.eNodeB65.x2App[0].client.connectAddress "\"eNodeB24%x2ppp3\""
param *.eNodeB65.x2App[1].client.connectAddress "\"eNodeB59%x2ppp6\""
param *.eNodeB65.x2App[2].client.connectAddress "\"eNodeB60%x2ppp4\""
param *.eNodeB65.x2App[3].client.connectAddress "\"eNodeB28%x2ppp3\""
param *.eNodeB66.numX2Apps 4
param *.eNodeB66.x2App[0].client.connectAddress "\"eNodeB14%x2ppp3\""
param *.eNodeB66.x2App[1].client.connectAddress "\"eNodeB58%x2ppp2\""
param *.eNodeB66.x2App[2].client.connectAddress "\"eNodeB22%x2ppp5\""
param *.eNodeB66.x2App[3].client.connectAddress "\"eNodeB41%x2ppp3\""
param *.eNodeB7.numX2Apps 3
param *.eNodeB7.x2App[0].client.connectAddress "\"eNodeB2%x2ppp1\""
param *.eNodeB7.x2App[1].client.connectAddress "\"eNodeB8%x2ppp0\""
param *.eNodeB7.x2App[2].client.connectAddress "\"eNodeB47%x2ppp0\""
param *.eNodeB8.numX2Apps 4
param *.eNodeB8.x2App[0].client.connectAddress "\"eNodeB7%x2ppp1\""
param *.eNodeB8.x2App[1].client.connectAddress "\"eNodeB13%x2ppp0\""
param *.eNodeB8.x2App[2].client.connectAddress "\"eNodeB31%x2ppp0\""
param *.eNodeB8.x2App[3].client.connectAddress "\"eNodeB47%x2ppp1\""
param *.eNodeB9.numX2Apps 3
param *.eNodeB9.x2App[0].client.connectAddress "\"eNodeB27%x2ppp0\""
param *.eNodeB9.x2App[1].client.connectAddress "\"eNodeB34%x2ppp1\""
param *.eNodeB9.x2App[2].client.connectAddress "\"eNodeB58%x2ppp0\""
param *.manager.autoShutdown true
param *.manager.host "\"localhost\""
param *.manager.launchConfig "xmldoc(\"erlangen.launchd.xml\")"
param *.manager.port 9999
param *.manager.updateInterval 1s
param *.obstacles.debug false
param *.obstacles.obstacles "xmldoc(\"config.xml\", \"//AnalogueModel[@type='SimpleObstacleShadowing']/obstacles\")"
param *.playgroundSizeX 2600m
param *.playgroundSizeY 2600m
param *.playgroundSizeZ 50m
param *.veinsManager.launchConfig "xmldoc(\"erlangen.launchd.xml\")"
param *.veinsManager.moduleDisplayString "\"\""
param *.veinsManager.moduleName "\"car\""
param *.veinsManager.moduleType "\"lte.corenetwork.nodes.cars.Car\""
param *.veinsManager.updateInterval 0.1s

vector 8  ErlangenLTE.server.ppp[0].queue  queueLength:vector  ETV
attr interpolationmode  sample-hold
attr title  "queue length, vector"
vector 9  ErlangenLTE.server.ppp[0].ppp  txState:vector  ETV
attr interpolationmode  sample-hold
attr title  "tx state, vector"
vector 24  ErlangenLTE.router.ppp[0].queue  queueLength:vector  ETV
attr interpolationmode  sample-hold
attr title  "queue length, vector"
vector 25  ErlangenLTE.router.ppp[0].ppp  txState:vector  ETV
attr interpolationmode  sample-hold
attr title  "tx state, vector"
vector 35  ErlangenLTE.router.ppp[1].queue  queueLength:vector  ETV
attr interpolationmode  sample-hold
attr title  "queue length, vector"
vector 36  ErlangenLTE.router.ppp[1].ppp  txState:vector  ETV
attr interpolationmode  sample-hold
attr title  "tx state, vector"
vector 51  ErlangenLTE.pgw.ppp[0].queue  queueLength:vector  ETV
attr interpolationmode  sample-hold
attr title  "queue length, vector"
vector 52  ErlangenLTE.pgw.ppp[0].ppp  txState:vector  ETV
attr interpolationmode  sample-hold
attr title  "tx state, vector"
vector 62  ErlangenLTE.pgw.ppp[1].queue  queueLength:vector  ETV
attr interpolationmode  sample-hold
attr title  "queue length, vector"
vector 63  ErlangenLTE.pgw.ppp[1].ppp  txState:vector  ETV
attr interpolationmode  sample-hold
attr title  "tx state, vector"
vector 73  ErlangenLTE.pgw.ppp[2].queue  queueLength:vector  ETV
attr interpolationmode  sample-hold
attr title  "queue length, vector"
vector 74  ErlangenLTE.pgw.ppp[2].ppp  txState:vector  ETV
attr interpolationmode  sample-hold
attr title  "tx state, vector"
vector 84  ErlangenLTE.pgw.ppp[3].queue  queueLength:vector  ETV
attr interpolationmode  sample-hold
attr title  "queue length, vector"
vector 85  ErlangenLTE.pgw.ppp[3].ppp  txState:vector  ETV
attr interpolationmode  sample-hold
attr title  "tx state, vector"
vector 95  ErlangenLTE.pgw.ppp[4].queue  queueLength:vector  ETV
attr interpolationmode  sample-hold
attr title  "queue length, vector"
vector 96  ErlangenLTE.pgw.ppp[4].ppp  txState:vector  ETV
attr interpolationmode  sample-hold
attr title  "tx state, vector"
vector 106  ErlangenLTE.pgw.ppp[5].queue  queueLength:vector  ETV
attr interpolationmode  sample-hold
attr title  "queue length, vector"
vector 107  ErlangenLTE.pgw.ppp[5].ppp  txState:vector  ETV
attr interpolationmode  sample-hold
attr title  "tx state, vector"
vector 117  ErlangenLTE.pgw.ppp[6].queue  queueLength:vector  ETV
attr interpolationmode  sample-hold
attr title  "queue length, vector"
vector 118  ErlangenLTE.pgw.ppp[6].ppp  txState:vector  ETV
attr interpolationmode  sample-hold
attr title  "tx state, vector"
vector 128  ErlangenLTE.pgw.ppp[7].queue  queueLength:vector  ETV
attr interpolationmode  sample-hold
attr title  "queue length, vector"
vector 129  ErlangenLTE.pgw.ppp[7].ppp  txState:vector  ETV
attr interpolationmode  sample-hold
attr title  "tx state, vector"
vector 139  ErlangenLTE.pgw.ppp[8].queue  queueLength:vector  ETV
attr interpolationmode  sample-hold
attr title  "queue length, vector"
vector 140  ErlangenLTE.pgw.ppp[8].ppp  txState:vector  ETV
attr interpolationmode  sample-hold
attr title  "tx state, vector"
vector 150  ErlangenLTE.pgw.ppp[9].queue  queueLength:vector  ETV
attr interpolationmode  sample-hold
attr title  "queue length, vector"
vector 151  ErlangenLTE.pgw.ppp[9].ppp  txState:vector  ETV
attr interpolationmode  sample-hold
attr title  "tx state, vector"
vector 161  ErlangenLTE.pgw.ppp[10].queue  queueLength:vector  ETV
attr interpolationmode  sample-hold
attr title  "queue length, vector"
vector 162  ErlangenLTE.pgw.ppp[10].ppp  txState:vector  ETV
attr interpolationmode  sample-hold
attr title  "tx state, vector"
vector 172  ErlangenLTE.pgw.ppp[11].queue  queueLength:vector  ETV
attr interpolationmode  sample-hold
attr title  "queue length, vector"
vector 173  ErlangenLTE.pgw.ppp[11].ppp  txState:vector  ETV
attr interpolationmode  sample-hold
attr title  "tx state, vector"
vector 183  ErlangenLTE.pgw.ppp[12].queue  queueLength:vector  ETV
attr interpolationmode  sample-hold
attr title  "queue length, vector"
vector 184  ErlangenLTE.pgw.ppp[12].ppp  txState:vector  ETV
attr interpolationmode  sample-hold
attr title  "tx state, vector"
vector 194  ErlangenLTE.pgw.ppp[13].queue  queueLength:vector  ETV
attr interpolationmode  sample-hold
attr title  "queue length, vector"
vector 195  ErlangenLTE.pgw.ppp[13].ppp  txState:vector  ETV
attr interpolationmode  sample-hold
attr title  "tx state, vector"
vector 205  ErlangenLTE.pgw.ppp[14].queue  queueLength:vector  ETV
attr interpolationmode  sample-hold
attr title  "queue length, vector"
vector 206  ErlangenLTE.pgw.ppp[14].ppp  txState:vector  ETV
attr interpolationmode  sample-hold
attr title  "tx state, vector"
vector 216  ErlangenLTE.pgw.ppp[15].queue  queueLength:vector  ETV
attr interpolationmode  sample-hold
attr title  "queue length, vector"
vector 217  ErlangenLTE.pgw.ppp[15].ppp  txState:vector  ETV
attr interpolationmode  sample-hold
attr title  "tx state, vector"
vector 227  ErlangenLTE.pgw.ppp[16].queue  queueLength:vector  ETV
attr interpolationmode  sample-hold
attr title  "queue length, vector"
vector 228  ErlangenLTE.pgw.ppp[16].ppp  txState:vector  ETV
attr interpolationmode  sample-hold
attr title  "tx state, vector"
vector 238  ErlangenLTE.pgw.ppp[17].queue  queueLength:vector  ETV
attr interpolationmode  sample-hold
attr title  "queue length, vector"
vector 239  ErlangenLTE.pgw.ppp[17].ppp  txState:vector  ETV
attr interpolationmode  sample-hold
attr title  "tx state, vector"
vector 249  ErlangenLTE.pgw.ppp[18].queue  queueLength:vector  ETV
attr interpolationmode  sample-hold
attr title  "queue length, vector"
vector 250  ErlangenLTE.pgw.ppp[18].ppp  txState:vector  ETV
attr interpolationmode  sample-hold
attr title  "tx state, vector"
vector 260  ErlangenLTE.pgw.ppp[19].queue  queueLength:vector  ETV
attr interpolationmode  sample-hold
attr title  "queue length, vector"
vector 261  ErlangenLTE.pgw.ppp[19].ppp  txState:vector  ETV
attr interpolationmode  sample-hold
attr title  "tx state, vector"
vector 271  ErlangenLTE.pgw.ppp[20].queue  queueLength:vector  ETV
attr interpolationmode  sample-hold
attr title  "queue length, vector"
vector 272  ErlangenLTE.pgw.ppp[20].ppp  txState:vector  ETV
attr interpolationmode  sample-hold
attr title  "tx state, vector"
vector 282  ErlangenLTE.pgw.ppp[21].queue  queueLength:vector  ETV
attr interpolationmode  sample-hold
attr title  "queue length, vector"
vector 283  ErlangenLTE.pgw.ppp[21].ppp  txState:vector  ETV
attr interpolationmode  sample-hold
attr title  "tx state, vector"
vector 293  ErlangenLTE.pgw.ppp[22].queue  queueLength:vector  ETV
attr interpolationmode  sample-hold
attr title  "queue length, vector"
vector 294  ErlangenLTE.pgw.ppp[22].ppp  txState:vector  ETV
attr interpolationmode  sample-hold
attr title  "tx state, vector"
vector 304  ErlangenLTE.pgw.ppp[23].queue  queueLength:vector  ETV
attr interpolationmode  sample-hold
attr title  "queue length, vector"
vector 305  ErlangenLTE.pgw.ppp[23].ppp  txState:vector  ETV
attr interpolationmode  sample-hold
attr title  "tx state, vector"
vector 315  ErlangenLTE.pgw.ppp[24].queue  queueLength:vector  ETV
attr interpolationmode  sample-hold
attr title  "queue length, vector"
vector 316  ErlangenLTE.pgw.ppp[24].ppp  txState:vector  ETV
attr interpolationmode  sample-hold
attr title  "tx state, vector"
vector 326  ErlangenLTE.pgw.ppp[25].queue  queueLength:vector  ETV
attr interpolationmode  sample-hold
attr title  "queue length, vector"
vector 327  ErlangenLTE.pgw.ppp[25].ppp  txState:vector  ETV
attr interpolationmode  sample-hold
attr title  "tx state, vector"
vector 337  ErlangenLTE.pgw.ppp[26].queue  queueLength:vector  ETV
attr interpolationmode  sample-hold
attr title  "queue length, vector"
vector 338  ErlangenLTE.pgw.ppp[26].ppp  txState:vector  ETV
attr interpolationmode  sample-hold
attr title  "tx state, vector"
vector 348  ErlangenLTE.pgw.ppp[27].queue  queueLength:vector  ETV
attr interpolationmode  sample-hold
attr title  "queue length, vector"
vector 349  ErlangenLTE.pgw.ppp[27].ppp  txState:vector  ETV
attr interpolationmode  sample-hold
attr title  "tx state, vector"
vector 359  ErlangenLTE.pgw.ppp[28].queue  queueLength:vector  ETV
attr interpolationmode  sample-hold
attr title  "queue length, vector"
vector 360  ErlangenLTE.pgw.ppp[28].ppp  txState:vector  ETV
attr interpolationmode  sample-hold
attr title  "tx state, vector"
vector 370  ErlangenLTE.pgw.ppp[29].queue  queueLength:vector  ETV
attr interpolationmode  sample-hold
attr title  "queue length, vector"
vector 371  ErlangenLTE.pgw.ppp[29].ppp  txState:vector  ETV
attr interpolationmode  sample-hold
attr title  "tx state, vector"
vector 381  ErlangenLTE.pgw.ppp[30].queue  queueLength:vector  ETV
attr interpolationmode  sample-hold
attr title  "queue length, vector"
vector 382  ErlangenLTE.pgw.ppp[30].ppp  txState:vector  ETV
attr interpolationmode  sample-hold
attr title  "tx state, vector"
vector 392  ErlangenLTE.pgw.ppp[31].queue  queueLength:vector  ETV
attr interpolationmode  sample-hold
attr title  "queue length, vector"
vector 393  ErlangenLTE.pgw.ppp[31].ppp  txState:vector  ETV
attr interpolationmode  sample-hold
attr title  "tx state, vector"
vector 403  ErlangenLTE.pgw.ppp[32].queue  queueLength:vector  ETV
attr interpolationmode  sample-hold
attr title  "queue length, vector"
vector 404  ErlangenLTE.pgw.ppp[32].ppp  txState:vector  ETV
attr interpolationmode  sample-hold
attr title  "tx state, vector"
vector 414  ErlangenLTE.pgw.ppp[33].queue  queueLength:vector  ETV
attr interpolationmode  sample-hold
attr title  "queue length, vector"
vector 415  ErlangenLTE.pgw.ppp[33].ppp  txState:vector  ETV
attr interpolationmode  sample-hold
attr title  "tx state, vector"
vector 425  ErlangenLTE.pgw.ppp[34].queue  queueLength:vector  ETV
attr interpolationmode  sample-hold
attr title  "queue length, vector"
vector 426  ErlangenLTE.pgw.ppp[34].ppp  txState:vector  ETV
attr interpolationmode  sample-hold
attr title  "tx state, vector"
vector 436  ErlangenLTE.pgw.ppp[35].queue  queueLength:vector  ETV
attr interpolationmode  sample-hold
attr title  "queue length, vector"
vector 437  ErlangenLTE.pgw.ppp[35].ppp  txState:vector  ETV
attr interpolationmode  sample-hold
attr title  "tx state, vector"
vector 447  ErlangenLTE.pgw.ppp[36].queue  queueLength:vector  ETV
attr interpolationmode  sample-hold
attr title  "queue length, vector"
vector 448  ErlangenLTE.pgw.ppp[36].ppp  txState:vector  ETV
attr interpolationmode  sample-hold
attr title  "tx state, vector"
vector 458  ErlangenLTE.pgw.ppp[37].queue  queueLength:vector  ETV
attr interpolationmode  sample-hold
attr title  "queue length, vector"
vector 459  ErlangenLTE.pgw.ppp[37].ppp  txState:vector  ETV
attr interpolationmode  sample-hold
attr title  "tx state, vector"
vector 469  ErlangenLTE.pgw.ppp[38].queue  queueLength:vector  ETV
attr interpolationmode  sample-hold
attr title  "queue length, vector"
vector 470  ErlangenLTE.pgw.ppp[38].ppp  txState:vector  ETV
attr interpolationmode  sample-hold
attr title  "tx state, vector"
vector 480  ErlangenLTE.pgw.ppp[39].queue  queueLength:vector  ETV
attr interpolationmode  sample-hold
attr title  "queue length, vector"
vector 481  ErlangenLTE.pgw.ppp[39].ppp  txState:vector  ETV
attr interpolationmode  sample-hold
attr title  "tx state, vector"
vector 491  ErlangenLTE.pgw.ppp[40].queue  queueLength:vector  ETV
attr interpolationmode  sample-hold
attr title  "queue length, vector"
vector 492  ErlangenLTE.pgw.ppp[40].ppp  txState:vector  ETV
attr interpolationmode  sample-hold
attr title  "tx state, vector"
vector 502  ErlangenLTE.pgw.ppp[41].queue  queueLength:vector  ETV
attr interpolationmode  sample-hold
attr title  "queue length, vector"
vector 503  ErlangenLTE.pgw.ppp[41].ppp  txState:vector  ETV
attr interpolationmode  sample-hold
attr title  "tx state, vector"
vector 513  ErlangenLTE.pgw.ppp[42].queue  queueLength:vector  ETV
attr interpolationmode  sample-hold
attr title  "queue length, vector"
vector 514  ErlangenLTE.pgw.ppp[42].ppp  txState:vector  ETV
attr interpolationmode  sample-hold
attr title  "tx state, vector"
vector 524  ErlangenLTE.pgw.ppp[43].queue  queueLength:vector  ETV
attr interpolationmode  sample-hold
attr title  "queue length, vector"
vector 525  ErlangenLTE.pgw.ppp[43].ppp  txState:vector  ETV
attr interpolationmode  sample-hold
attr title  "tx state, vector"
vector 535  ErlangenLTE.pgw.ppp[44].queue  queueLength:vector  ETV
attr interpolationmode  sample-hold
attr title  "queue length, vector"
vector 536  ErlangenLTE.pgw.ppp[44].ppp  txState:vector  ETV
attr interpolationmode  sample-hold
attr title  "tx state, vector"
vector 546  ErlangenLTE.pgw.ppp[45].queue  queueLength:vector  ETV
attr interpolationmode  sample-hold
attr title  "queue length, vector"
vector 547  ErlangenLTE.pgw.ppp[45].ppp  txState:vector  ETV
attr interpolationmode  sample-hold
attr title  "tx state, vector"
vector 557  ErlangenLTE.pgw.ppp[46].queue  queueLength:vector  ETV
attr interpolationmode  sample-hold
attr title  "queue length, vector"
vector 558  ErlangenLTE.pgw.ppp[46].ppp  txState:vector  ETV
attr interpolationmode  sample-hold
attr title  "tx state, vector"
vector 568  ErlangenLTE.pgw.ppp[47].queue  queueLength:vector  ETV
attr interpolationmode  sample-hold
attr title  "queue length, vector"
vector 569  ErlangenLTE.pgw.ppp[47].ppp  txState:vector  ETV
attr interpolationmode  sample-hold
attr title  "tx state, vector"
vector 579  ErlangenLTE.pgw.ppp[48].queue  queueLength:vector  ETV
attr interpolationmode  sample-hold
attr title  "queue length, vector"
vector 580  ErlangenLTE.pgw.ppp[48].ppp  txState:vector  ETV
attr interpolationmode  sample-hold
attr title  "tx state, vector"
vector 590  ErlangenLTE.pgw.ppp[49].queue  queueLength:vector  ETV
attr interpolationmode  sample-hold
attr title  "queue length, vector"
vector 591  ErlangenLTE.pgw.ppp[49].ppp  txState:vector  ETV
attr interpolationmode  sample-hold
attr title  "tx state, vector"
vector 601  ErlangenLTE.pgw.ppp[50].queue  queueLength:vector  ETV
attr interpolationmode  sample-hold
attr title  "queue length, vector"
vector 602  ErlangenLTE.pgw.ppp[50].ppp  txState:vector  ETV
attr interpolationmode  sample-hold
attr title  "tx state, vector"
vector 612  ErlangenLTE.pgw.ppp[51].queue  queueLength:vector  ETV
attr interpolationmode  sample-hold
attr title  "queue length, vector"
vector 613  ErlangenLTE.pgw.ppp[51].ppp  txState:vector  ETV
attr interpolationmode  sample-hold
attr title  "tx state, vector"
vector 623  ErlangenLTE.pgw.ppp[52].queue  queueLength:vector  ETV
attr interpolationmode  sample-hold
attr title  "queue length, vector"
vector 624  ErlangenLTE.pgw.ppp[52].ppp  txState:vector  ETV
attr interpolationmode  sample-hold
attr title  "tx state, vector"
vector 634  ErlangenLTE.pgw.ppp[53].queue  queueLength:vector  ETV
attr interpolationmode  sample-hold
attr title  "queue length, vector"
vector 635  ErlangenLTE.pgw.ppp[53].ppp  txState:vector  ETV
attr interpolationmode  sample-hold
attr title  "tx state, vector"
vector 645  ErlangenLTE.pgw.ppp[54].queue  queueLength:vector  ETV
attr interpolationmode  sample-hold
attr title  "queue length, vector"
vector 646  ErlangenLTE.pgw.ppp[54].ppp  txState:vector  ETV
attr interpolationmode  sample-hold
attr title  "tx state, vector"
vector 656  ErlangenLTE.pgw.ppp[55].queue  queueLength:vector  ETV
attr interpolationmode  sample-hold
attr title  "queue length, vector"
vector 657  ErlangenLTE.pgw.ppp[55].ppp  txState:vector  ETV
attr interpolationmode  sample-hold
attr title  "tx state, vector"
vector 667  ErlangenLTE.pgw.ppp[56].queue  queueLength:vector  ETV
attr interpolationmode  sample-hold
attr title  "queue length, vector"
vector 668  ErlangenLTE.pgw.ppp[56].ppp  txState:vector  ETV
attr interpolationmode  sample-hold
attr title  "tx state, vector"
vector 678  ErlangenLTE.pgw.ppp[57].queue  queueLength:vector  ETV
attr interpolationmode  sample-hold
attr title  "queue length, vector"
vector 679  ErlangenLTE.pgw.ppp[57].ppp  txState:vector  ETV
attr interpolationmode  sample-hold
attr title  "tx state, vector"
vector 689  ErlangenLTE.pgw.ppp[58].queue  queueLength:vector  ETV
attr interpolationmode  sample-hold
attr title  "queue length, vector"
vector 690  ErlangenLTE.pgw.ppp[58].ppp  txState:vector  ETV
attr interpolationmode  sample-hold
attr title  "tx state, vector"
vector 700  ErlangenLTE.pgw.ppp[59].queue  queueLength:vector  ETV
attr interpolationmode  sample-hold
attr title  "queue length, vector"
vector 701  ErlangenLTE.pgw.ppp[59].ppp  txState:vector  ETV
attr interpolationmode  sample-hold
attr title  "tx state, vector"
vector 711  ErlangenLTE.pgw.ppp[60].queue  queueLength:vector  ETV
attr interpolationmode  sample-hold
attr title  "queue length, vector"
vector 712  ErlangenLTE.pgw.ppp[60].ppp  txState:vector  ETV
attr interpolationmode  sample-hold
attr title  "tx state, vector"
vector 722  ErlangenLTE.pgw.ppp[61].queue  queueLength:vector  ETV
attr interpolationmode  sample-hold
attr title  "queue length, vector"
vector 723  ErlangenLTE.pgw.ppp[61].ppp  txState:vector  ETV
attr interpolationmode  sample-hold
attr title  "tx state, vector"
vector 733  ErlangenLTE.pgw.ppp[62].queue  queueLength:vector  ETV
attr interpolationmode  sample-hold
attr title  "queue length, vector"
vector 734  ErlangenLTE.pgw.ppp[62].ppp  txState:vector  ETV
attr interpolationmode  sample-hold
attr title  "tx state, vector"
vector 744  ErlangenLTE.pgw.ppp[63].queue  queueLength:vector  ETV
attr interpolationmode  sample-hold
attr title  "queue length, vector"
vector 745  ErlangenLTE.pgw.ppp[63].ppp  txState:vector  ETV
attr interpolationmode  sample-hold
attr title  "tx state, vector"
vector 755  ErlangenLTE.pgw.ppp[64].queue  queueLength:vector  ETV
attr interpolationmode  sample-hold
attr title  "queue length, vector"
vector 756  ErlangenLTE.pgw.ppp[64].ppp  txState:vector  ETV
attr interpolationmode  sample-hold
attr title  "tx state, vector"
vector 766  ErlangenLTE.pgw.ppp[65].queue  queueLength:vector  ETV
attr interpolationmode  sample-hold
attr title  "queue length, vector"
vector 767  ErlangenLTE.pgw.ppp[65].ppp  txState:vector  ETV
attr interpolationmode  sample-hold
attr title  "tx state, vector"
vector 777  ErlangenLTE.pgw.pppInterface.queue  queueLength:vector  ETV
attr interpolationmode  sample-hold
attr title  "queue length, vector"
vector 778  ErlangenLTE.pgw.pppInterface.ppp  txState:vector  ETV
attr interpolationmode  sample-hold
attr title  "tx state, vector"
vector 820  ErlangenLTE.eNodeB1.pppIf.queue  queueLength:vector  ETV
attr interpolationmode  sample-hold
attr title  "queue length, vector"
vector 821  ErlangenLTE.eNodeB1.pppIf.ppp  txState:vector  ETV
attr interpolationmode  sample-hold
attr title  "tx state, vector"
vector 831  ErlangenLTE.eNodeB1.x2ppp[0].queue  queueLength:vector  ETV
attr interpolationmode  sample-hold
attr title  "queue length, vector"
vector 832  ErlangenLTE.eNodeB1.x2ppp[0].ppp  txState:vector  ETV
attr interpolationmode  sample-hold
attr title  "tx state, vector"
vector 842  ErlangenLTE.eNodeB1.x2ppp[1].queue  queueLength:vector  ETV
attr interpolationmode  sample-hold
attr title  "queue length, vector"
vector 843  ErlangenLTE.eNodeB1.x2ppp[1].ppp  txState:vector  ETV
attr interpolationmode  sample-hold
attr title  "tx state, vector"
vector 853  ErlangenLTE.eNodeB1.x2ppp[2].queue  queueLength:vector  ETV
attr interpolationmode  sample-hold
attr title  "queue length, vector"
vector 854  ErlangenLTE.eNodeB1.x2ppp[2].ppp  txState:vector  ETV
attr interpolationmode  sample-hold
attr title  "tx state, vector"
vector 864  ErlangenLTE.eNodeB1.x2ppp[3].queue  queueLength:vector  ETV
attr interpolationmode  sample-hold
attr title  "queue length, vector"
vector 865  ErlangenLTE.eNodeB1.x2ppp[3].ppp  txState:vector  ETV
attr interpolationmode  sample-hold
attr title  "tx state, vector"
vector 875  ErlangenLTE.eNodeB1.x2ppp[4].queue  queueLength:vector  ETV
attr interpolationmode  sample-hold
attr title  "queue length, vector"
vector 876  ErlangenLTE.eNodeB1.x2ppp[4].ppp  txState:vector  ETV
attr interpolationmode  sample-hold
attr title  "tx state, vector"
vector 935  ErlangenLTE.eNodeB2.pppIf.queue  queueLength:vector  ETV
attr interpolationmode  sample-hold
attr title  "queue length, vector"
vector 936  ErlangenLTE.eNodeB2.pppIf.ppp  txState:vector  ETV
attr interpolationmode  sample-hold
attr title  "tx state, vector"
vector 946  ErlangenLTE.eNodeB2.x2ppp[0].queue  queueLength:vector  ETV
attr interpolationmode  sample-hold
attr title  "queue length, vector"
vector 947  ErlangenLTE.eNodeB2.x2ppp[0].ppp  txState:vector  ETV
attr interpolationmode  sample-hold
attr title  "tx state, vector"
vector 957  ErlangenLTE.eNodeB2.x2ppp[1].queue  queueLength:vector  ETV
attr interpolationmode  sample-hold
attr title  "queue length, vector"
vector 958  ErlangenLTE.eNodeB2.x2ppp[1].ppp  txState:vector  ETV
attr interpolationmode  sample-hold
attr title  "tx state, vector"
vector 968  ErlangenLTE.eNodeB2.x2ppp[2].queue  queueLength:vector  ETV
attr interpolationmode  sample-hold
attr title  "queue length, vector"
vector 969  ErlangenLTE.eNodeB2.x2ppp[2].ppp  txState:vector  ETV
attr interpolationmode  sample-hold
attr title  "tx state, vector"
vector 1022  ErlangenLTE.eNodeB3.pppIf.queue  queueLength:vector  ETV
attr interpolationmode  sample-hold
attr title  "queue length, vector"
vector 1023  ErlangenLTE.eNodeB3.pppIf.ppp  txState:vector  ETV
attr interpolationmode  sample-hold
attr title  "tx state, vector"
vector 1033  ErlangenLTE.eNodeB3.x2ppp[0].queue  queueLength:vector  ETV
attr interpolationmode  sample-hold
attr title  "queue length, vector"
vector 1034  ErlangenLTE.eNodeB3.x2ppp[0].ppp  txState:vector  ETV
attr interpolationmode  sample-hold
attr title  "tx state, vector"
vector 1044  ErlangenLTE.eNodeB3.x2ppp[1].queue  queueLength:vector  ETV
attr interpolationmode  sample-hold
attr title  "queue length, vector"
vector 1045  ErlangenLTE.eNodeB3.x2ppp[1].ppp  txState:vector  ETV
attr interpolationmode  sample-hold
attr title  "tx state, vector"
vector 1055  ErlangenLTE.eNodeB3.x2ppp[2].queue  queueLength:vector  ETV
attr interpolationmode  sample-hold
attr title  "queue length, vector"
vector 1056  ErlangenLTE.eNodeB3.x2ppp[2].ppp  txState:vector  ETV
attr interpolationmode  sample-hold
attr title  "tx state, vector"
vector 1066  ErlangenLTE.eNodeB3.x2ppp[3].queue  queueLength:vector  ETV
attr interpolationmode  sample-hold
attr title  "queue length, vector"
vector 1067  ErlangenLTE.eNodeB3.x2ppp[3].ppp  txState:vector  ETV
attr interpolationmode  sample-hold
attr title  "tx state, vector"
vector 1077  ErlangenLTE.eNodeB3.x2ppp[4].queue  queueLength:vector  ETV
attr interpolationmode  sample-hold
attr title  "queue length, vector"
vector 1078  ErlangenLTE.eNodeB3.x2ppp[4].ppp  txState:vector  ETV
attr interpolationmode  sample-hold
attr title  "tx state, vector"
vector 1088  ErlangenLTE.eNodeB3.x2ppp[5].queue  queueLength:vector  ETV
attr interpolationmode  sample-hold
attr title  "queue length, vector"
vector 1089  ErlangenLTE.eNodeB3.x2ppp[5].ppp  txState:vector  ETV
attr interpolationmode  sample-hold
attr title  "tx state, vector"
vector 1151  ErlangenLTE.eNodeB4.pppIf.queue  queueLength:vector  ETV
attr interpolationmode  sample-hold
attr title  "queue length, vector"
vector 1152  ErlangenLTE.eNodeB4.pppIf.ppp  txState:vector  ETV
attr interpolationmode  sample-hold
attr title  "tx state, vector"
vector 1162  ErlangenLTE.eNodeB4.x2ppp[0].queue  queueLength:vector  ETV
attr interpolationmode  sample-hold
attr title  "queue length, vector"
vector 1163  ErlangenLTE.eNodeB4.x2ppp[0].ppp  txState:vector  ETV
attr interpolationmode  sample-hold
attr title  "tx state, vector"
vector 1173  ErlangenLTE.eNodeB4.x2ppp[1].queue  queueLength:vector  ETV
attr interpolationmode  sample-hold
attr title  "queue length, vector"
vector 1174  ErlangenLTE.eNodeB4.x2ppp[1].ppp  txState:vector  ETV
attr interpolationmode  sample-hold
attr title  "tx state, vector"
vector 1184  ErlangenLTE.eNodeB4.x2ppp[2].queue  queueLength:vector  ETV
attr interpolationmode  sample-hold
attr title  "queue length, vector"
vector 1185  ErlangenLTE.eNodeB4.x2ppp[2].ppp  txState:vector  ETV
attr interpolationmode  sample-hold
attr title  "tx state, vector"
vector 1238  ErlangenLTE.eNodeB5.pppIf.queue  queueLength:vector  ETV
attr interpolationmode  sample-hold
attr title  "queue length, vector"
vector 1239  ErlangenLTE.eNodeB5.pppIf.ppp  txState:vector  ETV
attr interpolationmode  sample-hold
attr title  "tx state, vector"
vector 1249  ErlangenLTE.eNodeB5.x2ppp[0].queue  queueLength:vector  ETV
attr interpolationmode  sample-hold
attr title  "queue length, vector"
vector 1250  ErlangenLTE.eNodeB5.x2ppp[0].ppp  txState:vector  ETV
attr interpolationmode  sample-hold
attr title  "tx state, vector"
vector 1260  ErlangenLTE.eNodeB5.x2ppp[1].queue  queueLength:vector  ETV
attr interpolationmode  sample-hold
attr title  "queue length, vector"
vector 1261  ErlangenLTE.eNodeB5.x2ppp[1].ppp  txState:vector  ETV
attr interpolationmode  sample-hold
attr title  "tx state, vector"
vector 1271  ErlangenLTE.eNodeB5.x2ppp[2].queue  queueLength:vector  ETV
attr interpolationmode  sample-hold
attr title  "queue length, vector"
vector 1272  ErlangenLTE.eNodeB5.x2ppp[2].ppp  txState:vector  ETV
attr interpolationmode  sample-hold
attr title  "tx state, vector"
vector 1325  ErlangenLTE.eNodeB6.pppIf.queue  queueLength:vector  ETV
attr interpolationmode  sample-hold
attr title  "queue length, vector"
vector 1326  ErlangenLTE.eNodeB6.pppIf.ppp  txState:vector  ETV
attr interpolationmode  sample-hold
attr title  "tx state, vector"
vector 1336  ErlangenLTE.eNodeB6.x2ppp[0].queue  queueLength:vector  ETV
attr interpolationmode  sample-hold
attr title  "queue length, vector"
vector 1337  ErlangenLTE.eNodeB6.x2ppp[0].ppp  txState:vector  ETV
attr interpolationmode  sample-hold
attr title  "tx state, vector"
vector 1347  ErlangenLTE.eNodeB6.x2ppp[1].queue  queueLength:vector  ETV
attr interpolationmode  sample-hold
attr title  "queue length, vector"
vector 1348  ErlangenLTE.eNodeB6.x2ppp[1].ppp  txState:vector  ETV
attr interpolationmode  sample-hold
attr title  "tx state, vector"
vector 1358  ErlangenLTE.eNodeB6.x2ppp[2].queue  queueLength:vector  ETV
attr interpolationmode  sample-hold
attr title  "queue length, vector"
vector 1359  ErlangenLTE.eNodeB6.x2ppp[2].ppp  txState:vector  ETV
attr interpolationmode  sample-hold
attr title  "tx state, vector"
vector 1369  ErlangenLTE.eNodeB6.x2ppp[3].queue  queueLength:vector  ETV
attr interpolationmode  sample-hold
attr title  "queue length, vector"
vector 1370  ErlangenLTE.eNodeB6.x2ppp[3].ppp  txState:vector  ETV
attr interpolationmode  sample-hold
attr title  "tx state, vector"
vector 1380  ErlangenLTE.eNodeB6.x2ppp[4].queue  queueLength:vector  ETV
attr interpolationmode  sample-hold
attr title  "queue length, vector"
vector 1381  ErlangenLTE.eNodeB6.x2ppp[4].ppp  txState:vector  ETV
attr interpolationmode  sample-hold
attr title  "tx state, vector"
vector 1440  ErlangenLTE.eNodeB7.pppIf.queue  queueLength:vector  ETV
attr interpolationmode  sample-hold
attr title  "queue length, vector"
vector 1441  ErlangenLTE.eNodeB7.pppIf.ppp  txState:vector  ETV
attr interpolationmode  sample-hold
attr title  "tx state, vector"
vector 1451  ErlangenLTE.eNodeB7.x2ppp[0].queue  queueLength:vector  ETV
attr interpolationmode  sample-hold
attr title  "queue length, vector"
vector 1452  ErlangenLTE.eNodeB7.x2ppp[0].ppp  txState:vector  ETV
attr interpolationmode  sample-hold
attr title  "tx state, vector"
vector 1462  ErlangenLTE.eNodeB7.x2ppp[1].queue  queueLength:vector  ETV
attr interpolationmode  sample-hold
attr title  "queue length, vector"
vector 1463  ErlangenLTE.eNodeB7.x2ppp[1].ppp  txState:vector  ETV
attr interpolationmode  sample-hold
attr title  "tx state, vector"
vector 1473  ErlangenLTE.eNodeB7.x2ppp[2].queue  queueLength:vector  ETV
attr interpolationmode  sample-hold
attr title  "queue length, vector"
vector 1474  ErlangenLTE.eNodeB7.x2ppp[2].ppp  txState:vector  ETV
attr interpolationmode  sample-hold
attr title  "tx state, vector"
vector 1527  ErlangenLTE.eNodeB8.pppIf.queue  queueLength:vector  ETV
attr interpolationmode  sample-hold
attr title  "queue length, vector"
vector 1528  ErlangenLTE.eNodeB8.pppIf.ppp  txState:vector  ETV
attr interpolationmode  sample-hold
attr title  "tx state, vector"
vector 1538  ErlangenLTE.eNodeB8.x2ppp[0].queue  queueLength:vector  ETV
attr interpolationmode  sample-hold
attr title  "queue length, vector"
vector 1539  ErlangenLTE.eNodeB8.x2ppp[0].ppp  txState:vector  ETV
attr interpolationmode  sample-hold
attr title  "tx state, vector"
vector 1549  ErlangenLTE.eNodeB8.x2ppp[1].queue  queueLength:vector  ETV
attr interpolationmode  sample-hold
attr title  "queue length, vector"
vector 1550  ErlangenLTE.eNodeB8.x2ppp[1].ppp  txState:vector  ETV
attr interpolationmode  sample-hold
attr title  "tx state, vector"
vector 1560  ErlangenLTE.eNodeB8.x2ppp[2].queue  queueLength:vector  ETV
attr interpolationmode  sample-hold
attr title  "queue length, vector"
vector 1561  ErlangenLTE.eNodeB8.x2ppp[2].ppp  txState:vector  ETV
attr interpolationmode  sample-hold
attr title  "tx state, vector"
vector 1571  ErlangenLTE.eNodeB8.x2ppp[3].queue  queueLength:vector  ETV
attr interpolationmode  sample-hold
attr title  "queue length, vector"
vector 1572  ErlangenLTE.eNodeB8.x2ppp[3].ppp  txState:vector  ETV
attr interpolationmode  sample-hold
attr title  "tx state, vector"
vector 1628  ErlangenLTE.eNodeB9.pppIf.queue  queueLength:vector  ETV
attr interpolationmode  sample-hold
attr title  "queue length, vector"
vector 1629  ErlangenLTE.eNodeB9.pppIf.ppp  txState:vector  ETV
attr interpolationmode  sample-hold
attr title  "tx state, vector"
vector 1639  ErlangenLTE.eNodeB9.x2ppp[0].queue  queueLength:vector  ETV
attr interpolationmode  sample-hold
attr title  "queue length, vector"
vector 1640  ErlangenLTE.eNodeB9.x2ppp[0].ppp  txState:vector  ETV
attr interpolationmode  sample-hold
attr title  "tx state, vector"
vector 1650  ErlangenLTE.eNodeB9.x2ppp[1].queue  queueLength:vector  ETV
attr interpolationmode  sample-hold
attr title  "queue length, vector"
vector 1651  ErlangenLTE.eNodeB9.x2ppp[1].ppp  txState:vector  ETV
attr interpolationmode  sample-hold
attr title  "tx state, vector"
vector 1661  ErlangenLTE.eNodeB9.x2ppp[2].queue  queueLength:vector  ETV
attr interpolationmode  sample-hold
attr title  "queue length, vector"
vector 1662  ErlangenLTE.eNodeB9.x2ppp[2].ppp  txState:vector  ETV
attr interpolationmode  sample-hold
attr title  "tx state, vector"
vector 1715  ErlangenLTE.eNodeB10.pppIf.queue  queueLength:vector  ETV
attr interpolationmode  sample-hold
attr title  "queue length, vector"
vector 1716  ErlangenLTE.eNodeB10.pppIf.ppp  txState:vector  ETV
attr interpolationmode  sample-hold
attr title  "tx state, vector"
vector 1726  ErlangenLTE.eNodeB10.x2ppp[0].queue  queueLength:vector  ETV
attr interpolationmode  sample-hold
attr title  "queue length, vector"
vector 1727  ErlangenLTE.eNodeB10.x2ppp[0].ppp  txState:vector  ETV
attr interpolationmode  sample-hold
attr title  "tx state, vector"
vector 1737  ErlangenLTE.eNodeB10.x2ppp[1].queue  queueLength:vector  ETV
attr interpolationmode  sample-hold
attr title  "queue length, vector"
vector 1738  ErlangenLTE.eNodeB10.x2ppp[1].ppp  txState:vector  ETV
attr interpolationmode  sample-hold
attr title  "tx state, vector"
vector 1748  ErlangenLTE.eNodeB10.x2ppp[2].queue  queueLength:vector  ETV
attr interpolationmode  sample-hold
attr title  "queue length, vector"
vector 1749  ErlangenLTE.eNodeB10.x2ppp[2].ppp  txState:vector  ETV
attr interpolationmode  sample-hold
attr title  "tx state, vector"
vector 1759  ErlangenLTE.eNodeB10.x2ppp[3].queue  queueLength:vector  ETV
attr interpolationmode  sample-hold
attr title  "queue length, vector"
vector 1760  ErlangenLTE.eNodeB10.x2ppp[3].ppp  txState:vector  ETV
attr interpolationmode  sample-hold
attr title  "tx state, vector"
vector 1770  ErlangenLTE.eNodeB10.x2ppp[4].queue  queueLength:vector  ETV
attr interpolationmode  sample-hold
attr title  "queue length, vector"
vector 1771  ErlangenLTE.eNodeB10.x2ppp[4].ppp  txState:vector  ETV
attr interpolationmode  sample-hold
attr title  "tx state, vector"
vector 1830  ErlangenLTE.eNodeB11.pppIf.queue  queueLength:vector  ETV
attr interpolationmode  sample-hold
attr title  "queue length, vector"
vector 1831  ErlangenLTE.eNodeB11.pppIf.ppp  txState:vector  ETV
attr interpolationmode  sample-hold
attr title  "tx state, vector"
vector 1841  ErlangenLTE.eNodeB11.x2ppp[0].queue  queueLength:vector  ETV
attr interpolationmode  sample-hold
attr title  "queue length, vector"
vector 1842  ErlangenLTE.eNodeB11.x2ppp[0].ppp  txState:vector  ETV
attr interpolationmode  sample-hold
attr title  "tx state, vector"
vector 1852  ErlangenLTE.eNodeB11.x2ppp[1].queue  queueLength:vector  ETV
attr interpolationmode  sample-hold
attr title  "queue length, vector"
vector 1853  ErlangenLTE.eNodeB11.x2ppp[1].ppp  txState:vector  ETV
attr interpolationmode  sample-hold
attr title  "tx state, vector"
vector 1863  ErlangenLTE.eNodeB11.x2ppp[2].queue  queueLength:vector  ETV
attr interpolationmode  sample-hold
attr title  "queue length, vector"
vector 1864  ErlangenLTE.eNodeB11.x2ppp[2].ppp  txState:vector  ETV
attr interpolationmode  sample-hold
attr title  "tx state, vector"
vector 1917  ErlangenLTE.eNodeB12.pppIf.queue  queueLength:vector  ETV
attr interpolationmode  sample-hold
attr title  "queue length, vector"
vector 1918  ErlangenLTE.eNodeB12.pppIf.ppp  txState:vector  ETV
attr interpolationmode  sample-hold
attr title  "tx state, vector"
vector 1928  ErlangenLTE.eNodeB12.x2ppp[0].queue  queueLength:vector  ETV
attr interpolationmode  sample-hold
attr title  "queue length, vector"
vector 1929  ErlangenLTE.eNodeB12.x2ppp[0].ppp  txState:vector  ETV
attr interpolationmode  sample-hold
attr title  "tx state, vector"
vector 1939  ErlangenLTE.eNodeB12.x2ppp[1].queue  queueLength:vector  ETV
attr interpolationmode  sample-hold
attr title  "queue length, vector"
vector 1940  ErlangenLTE.eNodeB12.x2ppp[1].ppp  txState:vector  ETV
attr interpolationmode  sample-hold
attr title  "tx state, vector"
vector 1950  ErlangenLTE.eNodeB12.x2ppp[2].queue  queueLength:vector  ETV
attr interpolationmode  sample-hold
attr title  "queue length, vector"
vector 1951  ErlangenLTE.eNodeB12.x2ppp[2].ppp  txState:vector  ETV
attr interpolationmode  sample-hold
attr title  "tx state, vector"
vector 2004  ErlangenLTE.eNodeB13.pppIf.queue  queueLength:vector  ETV
attr interpolationmode  sample-hold
attr title  "queue length, vector"
vector 2005  ErlangenLTE.eNodeB13.pppIf.ppp  txState:vector  ETV
attr interpolationmode  sample-hold
attr title  "tx state, vector"
vector 2015  ErlangenLTE.eNodeB13.x2ppp[0].queue  queueLength:vector  ETV
attr interpolationmode  sample-hold
attr title  "queue length, vector"
vector 2016  ErlangenLTE.eNodeB13.x2ppp[0].ppp  txState:vector  ETV
attr interpolationmode  sample-hold
attr title  "tx state, vector"
vector 2026  ErlangenLTE.eNodeB13.x2ppp[1].queue  queueLength:vector  ETV
attr interpolationmode  sample-hold
attr title  "queue length, vector"
vector 2027  ErlangenLTE.eNodeB13.x2ppp[1].ppp  txState:vector  ETV
attr interpolationmode  sample-hold
attr title  "tx state, vector"
vector 2037  ErlangenLTE.eNodeB13.x2ppp[2].queue  queueLength:vector  ETV
attr interpolationmode  sample-hold
attr title  "queue length, vector"
vector 2038  ErlangenLTE.eNodeB13.x2ppp[2].ppp  txState:vector  ETV
attr interpolationmode  sample-hold
attr title  "tx state, vector"
vector 2048  ErlangenLTE.eNodeB13.x2ppp[3].queue  queueLength:vector  ETV
attr interpolationmode  sample-hold
attr title  "queue length, vector"
vector 2049  ErlangenLTE.eNodeB13.x2ppp[3].ppp  txState:vector  ETV
attr interpolationmode  sample-hold
attr title  "tx state, vector"
vector 2059  ErlangenLTE.eNodeB13.x2ppp[4].queue  queueLength:vector  ETV
attr interpolationmode  sample-hold
attr title  "queue length, vector"
vector 2060  ErlangenLTE.eNodeB13.x2ppp[4].ppp  txState:vector  ETV
attr interpolationmode  sample-hold
attr title  "tx state, vector"
vector 2070  ErlangenLTE.eNodeB13.x2ppp[5].queue  queueLength:vector  ETV
attr interpolationmode  sample-hold
attr title  "queue length, vector"
vector 2071  ErlangenLTE.eNodeB13.x2ppp[5].ppp  txState:vector  ETV
attr interpolationmode  sample-hold
attr title  "tx state, vector"
vector 2081  ErlangenLTE.eNodeB13.x2ppp[6].queue  queueLength:vector  ETV
attr interpolationmode  sample-hold
attr title  "queue length, vector"
vector 2082  ErlangenLTE.eNodeB13.x2ppp[6].ppp  txState:vector  ETV
attr interpolationmode  sample-hold
attr title  "tx state, vector"
vector 2147  ErlangenLTE.eNodeB14.pppIf.queue  queueLength:vector  ETV
attr interpolationmode  sample-hold
attr title  "queue length, vector"
vector 2148  ErlangenLTE.eNodeB14.pppIf.ppp  txState:vector  ETV
attr interpolationmode  sample-hold
attr title  "tx state, vector"
vector 2158  ErlangenLTE.eNodeB14.x2ppp[0].queue  queueLength:vector  ETV
attr interpolationmode  sample-hold
attr title  "queue length, vector"
vector 2159  ErlangenLTE.eNodeB14.x2ppp[0].ppp  txState:vector  ETV
attr interpolationmode  sample-hold
attr title  "tx state, vector"
vector 2169  ErlangenLTE.eNodeB14.x2ppp[1].queue  queueLength:vector  ETV
attr interpolationmode  sample-hold
attr title  "queue length, vector"
vector 2170  ErlangenLTE.eNodeB14.x2ppp[1].ppp  txState:vector  ETV
attr interpolationmode  sample-hold
attr title  "tx state, vector"
vector 2180  ErlangenLTE.eNodeB14.x2ppp[2].queue  queueLength:vector  ETV
attr interpolationmode  sample-hold
attr title  "queue length, vector"
vector 2181  ErlangenLTE.eNodeB14.x2ppp[2].ppp  txState:vector  ETV
attr interpolationmode  sample-hold
attr title  "tx state, vector"
vector 2191  ErlangenLTE.eNodeB14.x2ppp[3].queue  queueLength:vector  ETV
attr interpolationmode  sample-hold
attr title  "queue length, vector"
vector 2192  ErlangenLTE.eNodeB14.x2ppp[3].ppp  txState:vector  ETV
attr interpolationmode  sample-hold
attr title  "tx state, vector"
vector 2248  ErlangenLTE.eNodeB15.pppIf.queue  queueLength:vector  ETV
attr interpolationmode  sample-hold
attr title  "queue length, vector"
vector 2249  ErlangenLTE.eNodeB15.pppIf.ppp  txState:vector  ETV
attr interpolationmode  sample-hold
attr title  "tx state, vector"
vector 2259  ErlangenLTE.eNodeB15.x2ppp[0].queue  queueLength:vector  ETV
attr interpolationmode  sample-hold
attr title  "queue length, vector"
vector 2260  ErlangenLTE.eNodeB15.x2ppp[0].ppp  txState:vector  ETV
attr interpolationmode  sample-hold
attr title  "tx state, vector"
vector 2270  ErlangenLTE.eNodeB15.x2ppp[1].queue  queueLength:vector  ETV
attr interpolationmode  sample-hold
attr title  "queue length, vector"
vector 2271  ErlangenLTE.eNodeB15.x2ppp[1].ppp  txState:vector  ETV
attr interpolationmode  sample-hold
attr title  "tx state, vector"
vector 2281  ErlangenLTE.eNodeB15.x2ppp[2].queue  queueLength:vector  ETV
attr interpolationmode  sample-hold
attr title  "queue length, vector"
vector 2282  ErlangenLTE.eNodeB15.x2ppp[2].ppp  txState:vector  ETV
attr interpolationmode  sample-hold
attr title  "tx state, vector"
vector 2292  ErlangenLTE.eNodeB15.x2ppp[3].queue  queueLength:vector  ETV
attr interpolationmode  sample-hold
attr title  "queue length, vector"
vector 2293  ErlangenLTE.eNodeB15.x2ppp[3].ppp  txState:vector  ETV
attr interpolationmode  sample-hold
attr title  "tx state, vector"
vector 2349  ErlangenLTE.eNodeB16.pppIf.queue  queueLength:vector  ETV
attr interpolationmode  sample-hold
attr title  "queue length, vector"
vector 2350  ErlangenLTE.eNodeB16.pppIf.ppp  txState:vector  ETV
attr interpolationmode  sample-hold
attr title  "tx state, vector"
vector 2360  ErlangenLTE.eNodeB16.x2ppp[0].queue  queueLength:vector  ETV
attr interpolationmode  sample-hold
attr title  "queue length, vector"
vector 2361  ErlangenLTE.eNodeB16.x2ppp[0].ppp  txState:vector  ETV
attr interpolationmode  sample-hold
attr title  "tx state, vector"
vector 2371  ErlangenLTE.eNodeB16.x2ppp[1].queue  queueLength:vector  ETV
attr interpolationmode  sample-hold
attr title  "queue length, vector"
vector 2372  ErlangenLTE.eNodeB16.x2ppp[1].ppp  txState:vector  ETV
attr interpolationmode  sample-hold
attr title  "tx state, vector"
vector 2382  ErlangenLTE.eNodeB16.x2ppp[2].queue  queueLength:vector  ETV
attr interpolationmode  sample-hold
attr title  "queue length, vector"
vector 2383  ErlangenLTE.eNodeB16.x2ppp[2].ppp  txState:vector  ETV
attr interpolationmode  sample-hold
attr title  "tx state, vector"
vector 2436  ErlangenLTE.eNodeB17.pppIf.queue  queueLength:vector  ETV
attr interpolationmode  sample-hold
attr title  "queue length, vector"
vector 2437  ErlangenLTE.eNodeB17.pppIf.ppp  txState:vector  ETV
attr interpolationmode  sample-hold
attr title  "tx state, vector"
vector 2447  ErlangenLTE.eNodeB17.x2ppp[0].queue  queueLength:vector  ETV
attr interpolationmode  sample-hold
attr title  "queue length, vector"
vector 2448  ErlangenLTE.eNodeB17.x2ppp[0].ppp  txState:vector  ETV
attr interpolationmode  sample-hold
attr title  "tx state, vector"
vector 2458  ErlangenLTE.eNodeB17.x2ppp[1].queue  queueLength:vector  ETV
attr interpolationmode  sample-hold
attr title  "queue length, vector"
vector 2459  ErlangenLTE.eNodeB17.x2ppp[1].ppp  txState:vector  ETV
attr interpolationmode  sample-hold
attr title  "tx state, vector"
vector 2469  ErlangenLTE.eNodeB17.x2ppp[2].queue  queueLength:vector  ETV
attr interpolationmode  sample-hold
attr title  "queue length, vector"
vector 2470  ErlangenLTE.eNodeB17.x2ppp[2].ppp  txState:vector  ETV
attr interpolationmode  sample-hold
attr title  "tx state, vector"
vector 2480  ErlangenLTE.eNodeB17.x2ppp[3].queue  queueLength:vector  ETV
attr interpolationmode  sample-hold
attr title  "queue length, vector"
vector 2481  ErlangenLTE.eNodeB17.x2ppp[3].ppp  txState:vector  ETV
attr interpolationmode  sample-hold
attr title  "tx state, vector"
vector 2537  ErlangenLTE.eNodeB18.pppIf.queue  queueLength:vector  ETV
attr interpolationmode  sample-hold
attr title  "queue length, vector"
vector 2538  ErlangenLTE.eNodeB18.pppIf.ppp  txState:vector  ETV
attr interpolationmode  sample-hold
attr title  "tx state, vector"
vector 2548  ErlangenLTE.eNodeB18.x2ppp[0].queue  queueLength:vector  ETV
attr interpolationmode  sample-hold
attr title  "queue length, vector"
vector 2549  ErlangenLTE.eNodeB18.x2ppp[0].ppp  txState:vector  ETV
attr interpolationmode  sample-hold
attr title  "tx state, vector"
vector 2559  ErlangenLTE.eNodeB18.x2ppp[1].queue  queueLength:vector  ETV
attr interpolationmode  sample-hold
attr title  "queue length, vector"
vector 2560  ErlangenLTE.eNodeB18.x2ppp[1].ppp  txState:vector  ETV
attr interpolationmode  sample-hold
attr title  "tx state, vector"
vector 2570  ErlangenLTE.eNodeB18.x2ppp[2].queue  queueLength:vector  ETV
attr interpolationmode  sample-hold
attr title  "queue length, vector"
vector 2571  ErlangenLTE.eNodeB18.x2ppp[2].ppp  txState:vector  ETV
attr interpolationmode  sample-hold
attr title  "tx state, vector"
vector 2624  ErlangenLTE.eNodeB19.pppIf.queue  queueLength:vector  ETV
attr interpolationmode  sample-hold
attr title  "queue length, vector"
vector 2625  ErlangenLTE.eNodeB19.pppIf.ppp  txState:vector  ETV
attr interpolationmode  sample-hold
attr title  "tx state, vector"
vector 2635  ErlangenLTE.eNodeB19.x2ppp[0].queue  queueLength:vector  ETV
attr interpolationmode  sample-hold
attr title  "queue length, vector"
vector 2636  ErlangenLTE.eNodeB19.x2ppp[0].ppp  txState:vector  ETV
attr interpolationmode  sample-hold
attr title  "tx state, vector"
vector 2646  ErlangenLTE.eNodeB19.x2ppp[1].queue  queueLength:vector  ETV
attr interpolationmode  sample-hold
attr title  "queue length, vector"
vector 2647  ErlangenLTE.eNodeB19.x2ppp[1].ppp  txState:vector  ETV
attr interpolationmode  sample-hold
attr title  "tx state, vector"
vector 2657  ErlangenLTE.eNodeB19.x2ppp[2].queue  queueLength:vector  ETV
attr interpolationmode  sample-hold
attr title  "queue length, vector"
vector 2658  ErlangenLTE.eNodeB19.x2ppp[2].ppp  txState:vector  ETV
attr interpolationmode  sample-hold
attr title  "tx state, vector"
vector 2711  ErlangenLTE.eNodeB20.pppIf.queue  queueLength:vector  ETV
attr interpolationmode  sample-hold
attr title  "queue length, vector"
vector 2712  ErlangenLTE.eNodeB20.pppIf.ppp  txState:vector  ETV
attr interpolationmode  sample-hold
attr title  "tx state, vector"
vector 2722  ErlangenLTE.eNodeB20.x2ppp[0].queue  queueLength:vector  ETV
attr interpolationmode  sample-hold
attr title  "queue length, vector"
vector 2723  ErlangenLTE.eNodeB20.x2ppp[0].ppp  txState:vector  ETV
attr interpolationmode  sample-hold
attr title  "tx state, vector"
vector 2733  ErlangenLTE.eNodeB20.x2ppp[1].queue  queueLength:vector  ETV
attr interpolationmode  sample-hold
attr title  "queue length, vector"
vector 2734  ErlangenLTE.eNodeB20.x2ppp[1].ppp  txState:vector  ETV
attr interpolationmode  sample-hold
attr title  "tx state, vector"
vector 2744  ErlangenLTE.eNodeB20.x2ppp[2].queue  queueLength:vector  ETV
attr interpolationmode  sample-hold
attr title  "queue length, vector"
vector 2745  ErlangenLTE.eNodeB20.x2ppp[2].ppp  txState:vector  ETV
attr interpolationmode  sample-hold
attr title  "tx state, vector"
vector 2755  ErlangenLTE.eNodeB20.x2ppp[3].queue  queueLength:vector  ETV
attr interpolationmode  sample-hold
attr title  "queue length, vector"
vector 2756  ErlangenLTE.eNodeB20.x2ppp[3].ppp  txState:vector  ETV
attr interpolationmode  sample-hold
attr title  "tx state, vector"
vector 2812  ErlangenLTE.eNodeB21.pppIf.queue  queueLength:vector  ETV
attr interpolationmode  sample-hold
attr title  "queue length, vector"
vector 2813  ErlangenLTE.eNodeB21.pppIf.ppp  txState:vector  ETV
attr interpolationmode  sample-hold
attr title  "tx state, vector"
vector 2823  ErlangenLTE.eNodeB21.x2ppp[0].queue  queueLength:vector  ETV
attr interpolationmode  sample-hold
attr title  "queue length, vector"
vector 2824  ErlangenLTE.eNodeB21.x2ppp[0].ppp  txState:vector  ETV
attr interpolationmode  sample-hold
attr title  "tx state, vector"
vector 2834  ErlangenLTE.eNodeB21.x2ppp[1].queue  queueLength:vector  ETV
attr interpolationmode  sample-hold
attr title  "queue length, vector"
vector 2835  ErlangenLTE.eNodeB21.x2ppp[1].ppp  txState:vector  ETV
attr interpolationmode  sample-hold
attr title  "tx state, vector"
vector 2845  ErlangenLTE.eNodeB21.x2ppp[2].queue  queueLength:vector  ETV
attr interpolationmode  sample-hold
attr title  "queue length, vector"
vector 2846  ErlangenLTE.eNodeB21.x2ppp[2].ppp  txState:vector  ETV
attr interpolationmode  sample-hold
attr title  "tx state, vector"
vector 2899  ErlangenLTE.eNodeB22.pppIf.queue  queueLength:vector  ETV
attr interpolationmode  sample-hold
attr title  "queue length, vector"
vector 2900  ErlangenLTE.eNodeB22.pppIf.ppp  txState:vector  ETV
attr interpolationmode  sample-hold
attr title  "tx state, vector"
vector 2910  ErlangenLTE.eNodeB22.x2ppp[0].queue  queueLength:vector  ETV
attr interpolationmode  sample-hold
attr title  "queue length, vector"
vector 2911  ErlangenLTE.eNodeB22.x2ppp[0].ppp  txState:vector  ETV
attr interpolationmode  sample-hold
attr title  "tx state, vector"
vector 2921  ErlangenLTE.eNodeB22.x2ppp[1].queue  queueLength:vector  ETV
attr interpolationmode  sample-hold
attr title  "queue length, vector"
vector 2922  ErlangenLTE.eNodeB22.x2ppp[1].ppp  txState:vector  ETV
attr interpolationmode  sample-hold
attr title  "tx state, vector"
vector 2932  ErlangenLTE.eNodeB22.x2ppp[2].queue  queueLength:vector  ETV
attr interpolationmode  sample-hold
attr title  "queue length, vector"
vector 2933  ErlangenLTE.eNodeB22.x2ppp[2].ppp  txState:vector  ETV
attr interpolationmode  sample-hold
attr title  "tx state, vector"
vector 2943  ErlangenLTE.eNodeB22.x2ppp[3].queue  queueLength:vector  ETV
attr interpolationmode  sample-hold
attr title  "queue length, vector"
vector 2944  ErlangenLTE.eNodeB22.x2ppp[3].ppp  txState:vector  ETV
attr interpolationmode  sample-hold
attr title  "tx state, vector"
vector 2954  ErlangenLTE.eNodeB22.x2ppp[4].queue  queueLength:vector  ETV
attr interpolationmode  sample-hold
attr title  "queue length, vector"
vector 2955  ErlangenLTE.eNodeB22.x2ppp[4].ppp  txState:vector  ETV
attr interpolationmode  sample-hold
attr title  "tx state, vector"
vector 2965  ErlangenLTE.eNodeB22.x2ppp[5].queue  queueLength:vector  ETV
attr interpolationmode  sample-hold
attr title  "queue length, vector"
vector 2966  ErlangenLTE.eNodeB22.x2ppp[5].ppp  txState:vector  ETV
attr interpolationmode  sample-hold
attr title  "tx state, vector"
vector 3028  ErlangenLTE.eNodeB23.pppIf.queue  queueLength:vector  ETV
attr interpolationmode  sample-hold
attr title  "queue length, vector"
vector 3029  ErlangenLTE.eNodeB23.pppIf.ppp  txState:vector  ETV
attr interpolationmode  sample-hold
attr title  "tx state, vector"
vector 3039  ErlangenLTE.eNodeB23.x2ppp[0].queue  queueLength:vector  ETV
attr interpolationmode  sample-hold
attr title  "queue length, vector"
vector 3040  ErlangenLTE.eNodeB23.x2ppp[0].ppp  txState:vector  ETV
attr interpolationmode  sample-hold
attr title  "tx state, vector"
vector 3050  ErlangenLTE.eNodeB23.x2ppp[1].queue  queueLength:vector  ETV
attr interpolationmode  sample-hold
attr title  "queue length, vector"
vector 3051  ErlangenLTE.eNodeB23.x2ppp[1].ppp  txState:vector  ETV
attr interpolationmode  sample-hold
attr title  "tx state, vector"
vector 3061  ErlangenLTE.eNodeB23.x2ppp[2].queue  queueLength:vector  ETV
attr interpolationmode  sample-hold
attr title  "queue length, vector"
vector 3062  ErlangenLTE.eNodeB23.x2ppp[2].ppp  txState:vector  ETV
attr interpolationmode  sample-hold
attr title  "tx state, vector"
vector 3072  ErlangenLTE.eNodeB23.x2ppp[3].queue  queueLength:vector  ETV
attr interpolationmode  sample-hold
attr title  "queue length, vector"
vector 3073  ErlangenLTE.eNodeB23.x2ppp[3].ppp  txState:vector  ETV
attr interpolationmode  sample-hold
attr title  "tx state, vector"
vector 3129  ErlangenLTE.eNodeB24.pppIf.queue  queueLength:vector  ETV
attr interpolationmode  sample-hold
attr title  "queue length, vector"
vector 3130  ErlangenLTE.eNodeB24.pppIf.ppp  txState:vector  ETV
attr interpolationmode  sample-hold
attr title  "tx state, vector"
vector 3140  ErlangenLTE.eNodeB24.x2ppp[0].queue  queueLength:vector  ETV
attr interpolationmode  sample-hold
attr title  "queue length, vector"
vector 3141  ErlangenLTE.eNodeB24.x2ppp[0].ppp  txState:vector  ETV
attr interpolationmode  sample-hold
attr title  "tx state, vector"
vector 3151  ErlangenLTE.eNodeB24.x2ppp[1].queue  queueLength:vector  ETV
attr interpolationmode  sample-hold
attr title  "queue length, vector"
vector 3152  ErlangenLTE.eNodeB24.x2ppp[1].ppp  txState:vector  ETV
attr interpolationmode  sample-hold
attr title  "tx state, vector"
vector 3162  ErlangenLTE.eNodeB24.x2ppp[2].queue  queueLength:vector  ETV
attr interpolationmode  sample-hold
attr title  "queue length, vector"
vector 3163  ErlangenLTE.eNodeB24.x2ppp[2].ppp  txState:vector  ETV
attr interpolationmode  sample-hold
attr title  "tx state, vector"
vector 3173  ErlangenLTE.eNodeB24.x2ppp[3].queue  queueLength:vector  ETV
attr interpolationmode  sample-hold
attr title  "queue length, vector"
vector 3174  ErlangenLTE.eNodeB24.x2ppp[3].ppp  txState:vector  ETV
attr interpolationmode  sample-hold
attr title  "tx state, vector"
vector 3230  ErlangenLTE.eNodeB25.pppIf.queue  queueLength:vector  ETV
attr interpolationmode  sample-hold
attr title  "queue length, vector"
vector 3231  ErlangenLTE.eNodeB25.pppIf.ppp  txState:vector  ETV
attr interpolationmode  sample-hold
attr title  "tx state, vector"
vector 3241  ErlangenLTE.eNodeB25.x2ppp[0].queue  queueLength:vector  ETV
attr interpolationmode  sample-hold
attr title  "queue length, vector"
vector 3242  ErlangenLTE.eNodeB25.x2ppp[0].ppp  txState:vector  ETV
attr interpolationmode  sample-hold
attr title  "tx state, vector"
vector 3252  ErlangenLTE.eNodeB25.x2ppp[1].queue  queueLength:vector  ETV
attr interpolationmode  sample-hold
attr title  "queue length, vector"
vector 3253  ErlangenLTE.eNodeB25.x2ppp[1].ppp  txState:vector  ETV
attr interpolationmode  sample-hold
attr title  "tx state, vector"
vector 3263  ErlangenLTE.eNodeB25.x2ppp[2].queue  queueLength:vector  ETV
attr interpolationmode  sample-hold
attr title  "queue length, vector"
vector 3264  ErlangenLTE.eNodeB25.x2ppp[2].ppp  txState:vector  ETV
attr interpolationmode  sample-hold
attr title  "tx state, vector"
vector 3317  ErlangenLTE.eNodeB26.pppIf.queue  queueLength:vector  ETV
attr interpolationmode  sample-hold
attr title  "queue length, vector"
vector 3318  ErlangenLTE.eNodeB26.pppIf.ppp  txState:vector  ETV
attr interpolationmode  sample-hold
attr title  "tx state, vector"
vector 3328  ErlangenLTE.eNodeB26.x2ppp[0].queue  queueLength:vector  ETV
attr interpolationmode  sample-hold
attr title  "queue length, vector"
vector 3329  ErlangenLTE.eNodeB26.x2ppp[0].ppp  txState:vector  ETV
attr interpolationmode  sample-hold
attr title  "tx state, vector"
vector 3339  ErlangenLTE.eNodeB26.x2ppp[1].queue  queueLength:vector  ETV
attr interpolationmode  sample-hold
attr title  "queue length, vector"
vector 3340  ErlangenLTE.eNodeB26.x2ppp[1].ppp  txState:vector  ETV
attr interpolationmode  sample-hold
attr title  "tx state, vector"
[...]
1151	135740 11 0 0 0 0 1 0 0 0 0
1152	135751 11 0 0 0 0 1 0 0 0 0
1162	135762 11 0 0 0 0 1 0 0 0 0
1163	135773 11 0 0 0 0 1 0 0 0 0
1173	135784 11 0 0 0 0 1 0 0 0 0
1174	135795 11 0 0 0 0 1 0 0 0 0
1184	135806 11 0 0 0 0 1 0 0 0 0
1185	135817 11 0 0 0 0 1 0 0 0 0
1238	135828 11 0 0 0 0 1 0 0 0 0
1239	135839 11 0 0 0 0 1 0 0 0 0
1249	135850 11 0 0 0 0 1 0 0 0 0
1250	135861 11 0 0 0 0 1 0 0 0 0
1260	135872 11 0 0 0 0 1 0 0 0 0
1261	135883 11 0 0 0 0 1 0 0 0 0
1271	135894 11 0 0 0 0 1 0 0 0 0
1272	135905 11 0 0 0 0 1 0 0 0 0
1325	135916 11 0 0 0 0 1 0 0 0 0
1326	135927 11 0 0 0 0 1 0 0 0 0
1336	135938 11 0 0 0 0 1 0 0 0 0
1337	135949 11 0 0 0 0 1 0 0 0 0
1347	135960 11 0 0 0 0 1 0 0 0 0
1348	135971 11 0 0 0 0 1 0 0 0 0
1358	135982 11 0 0 0 0 1 0 0 0 0
1359	135993 11 0 0 0 0 1 0 0 0 0
1369	136004 11 0 0 0 0 1 0 0 0 0
1370	136015 11 0 0 0 0 1 0 0 0 0
1380	136026 11 0 0 0 0 1 0 0 0 0
1381	136037 11 0 0 0 0 1 0 0 0 0
1440	136048 11 0 0 0 0 1 0 0 0 0
1441	136059 11 0 0 0 0 1 0 0 0 0
1451	136070 11 0 0 0 0 1 0 0 0 0
1452	136081 11 0 0 0 0 1 0 0 0 0
1462	136092 11 0 0 0 0 1 0 0 0 0
1463	136103 11 0 0 0 0 1 0 0 0 0
1473	136114 11 0 0 0 0 1 0 0 0 0
1474	136125 11 0 0 0 0 1 0 0 0 0
1527	136136 11 0 0 0 0 1 0 0 0 0
1528	136147 11 0 0 0 0 1 0 0 0 0
1538	136158 11 0 0 0 0 1 0 0 0 0
1539	136169 11 0 0 0 0 1 0 0 0 0
1549	136180 11 0 0 0 0 1 0 0 0 0
1550	136191 11 0 0 0 0 1 0 0 0 0
1560	136202 11 0 0 0 0 1 0 0 0 0
1561	136213 11 0 0 0 0 1 0 0 0 0
1571	136224 11 0 0 0 0 1 0 0 0 0
1572	136235 11 0 0 0 0 1 0 0 0 0
1628	136246 11 0 0 0 0 1 0 0 0 0
1629	136257 11 0 0 0 0 1 0 0 0 0
1639	136268 11 0 0 0 0 1 0 0 0 0
1640	136279 11 0 0 0 0 1 0 0 0 0
1650	136290 11 0 0 0 0 1 0 0 0 0
1651	136301 11 0 0 0 0 1 0 0 0 0
1661	136312 11 0 0 0 0 1 0 0 0 0
1662	136323 11 0 0 0 0 1 0 0 0 0
1715	136334 11 0 0 0 0 1 0 0 0 0
1716	136345 11 0 0 0 0 1 0 0 0 0
1726	136356 11 0 0 0 0 1 0 0 0 0
1727	136367 11 0 0 0 0 1 0 0 0 0
1737	136378 11 0 0 0 0 1 0 0 0 0
1738	136389 11 0 0 0 0 1 0 0 0 0
1748	136400 11 0 0 0 0 1 0 0 0 0
1749	136411 11 0 0 0 0 1 0 0 0 0
1759	136422 11 0 0 0 0 1 0 0 0 0
1760	136433 11 0 0 0 0 1 0 0 0 0
1770	136444 11 0 0 0 0 1 0 0 0 0
1771	136455 11 0 0 0 0 1 0 0 0 0
1830	136466 11 0 0 0 0 1 0 0 0 0
1831	136477 11 0 0 0 0 1 0 0 0 0
1841	136488 11 0 0 0 0 1 0 0 0 0
1842	136499 11 0 0 0 0 1 0 0 0 0
1852	136510 11 0 0 0 0 1 0 0 0 0
1853	136521 11 0 0 0 0 1 0 0 0 0
1863	136532 11 0 0 0 0 1 0 0 0 0
1864	136543 11 0 0 0 0 1 0 0 0 0
1917	136554 11 0 0 0 0 1 0 0 0 0
1918	136565 11 0 0 0 0 1 0 0 0 0
1928	136576 11 0 0 0 0 1 0 0 0 0
1929	136587 11 0 0 0 0 1 0 0 0 0
1939	136598 11 0 0 0 0 1 0 0 0 0
1940	136609 11 0 0 0 0 1 0 0 0 0
1950	136620 11 0 0 0 0 1 0 0 0 0
1951	136631 11 0 0 0 0 1 0 0 0 0
2004	136642 11 0 0 0 0 1 0 0 0 0
2005	136653 11 0 0 0 0 1 0 0 0 0
2015	136664 11 0 0 0 0 1 0 0 0 0
2016	136675 11 0 0 0 0 1 0 0 0 0
2026	136686 11 0 0 0 0 1 0 0 0 0
2027	136697 11 0 0 0 0 1 0 0 0 0
2037	136708 11 0 0 0 0 1 0 0 0 0
2038	136719 11 0 0 0 0 1 0 0 0 0
2048	136730 11 0 0 0 0 1 0 0 0 0
2049	136741 11 0 0 0 0 1 0 0 0 0
2059	136752 11 0 0 0 0 1 0 0 0 0
2060	136763 11 0 0 0 0 1 0 0 0 0
2070	136774 11 0 0 0 0 1 0 0 0 0
2071	136785 11 0 0 0 0 1 0 0 0 0
2081	136796 11 0 0 0 0 1 0 0 0 0
2082	136807 11 0 0 0 0 1 0 0 0 0
2147	136818 11 0 0 0 0 1 0 0 0 0
2148	136829 11 0 0 0 0 1 0 0 0 0
2158	136840 11 0 0 0 0 1 0 0 0 0
2159	136851 11 0 0 0 0 1 0 0 0 0
2169	136862 11 0 0 0 0 1 0 0 0 0
2170	136873 11 0 0 0 0 1 0 0 0 0
2180	136884 11 0 0 0 0 1 0 0 0 0
2181	136895 11 0 0 0 0 1 0 0 0 0
2191	136906 11 0 0 0 0 1 0 0 0 0
2192	136917 11 0 0 0 0 1 0 0 0 0
2248	136928 11 0 0 0 0 1 0 0 0 0
2249	136939 11 0 0 0 0 1 0 0 0 0
2259	136950 11 0 0 0 0 1 0 0 0 0
2260	136961 11 0 0 0 0 1 0 0 0 0
2270	136972 11 0 0 0 0 1 0 0 0 0
2271	136983 11 0 0 0 0 1 0 0 0 0
2281	136994 11 0 0 0 0 1 0 0 0 0
2282	137005 11 0 0 0 0 1 0 0 0 0
2292	137016 11 0 0 0 0 1 0 0 0 0
2293	137027 11 0 0 0 0 1 0 0 0 0
2349	137038 11 0 0 0 0 1 0 0 0 0
2350	137049 11 0 0 0 0 1 0 0 0 0
2360	137060 11 0 0 0 0 1 0 0 0 0
2361	137071 11 0 0 0 0 1 0 0 0 0
2371	137082 11 0 0 0 0 1 0 0 0 0
2372	137093 11 0 0 0 0 1 0 0 0 0
2382	137104 11 0 0 0 0 1 0 0 0 0
2383	137115 11 0 0 0 0 1 0 0 0 0
2436	137126 11 0 0 0 0 1 0 0 0 0
2437	137137 11 0 0 0 0 1 0 0 0 0
2447	137148 11 0 0 0 0 1 0 0 0 0
2448	137159 11 0 0 0 0 1 0 0 0 0
2458	137170 11 0 0 0 0 1 0 0 0 0
2459	137181 11 0 0 0 0 1 0 0 0 0
2469	137192 11 0 0 0 0 1 0 0 0 0
2470	137203 11 0 0 0 0 1 0 0 0 0
2480	137214 11 0 0 0 0 1 0 0 0 0
2481	137225 11 0 0 0 0 1 0 0 0 0
2537	137236 11 0 0 0 0 1 0 0 0 0
2538	137247 11 0 0 0 0 1 0 0 0 0
2548	137258 11 0 0 0 0 1 0 0 0 0
2549	137269 11 0 0 0 0 1 0 0 0 0
2559	137280 11 0 0 0 0 1 0 0 0 0
2560	137291 11 0 0 0 0 1 0 0 0 0
2570	137302 11 0 0 0 0 1 0 0 0 0
2571	137313 11 0 0 0 0 1 0 0 0 0
2624	137324 11 0 0 0 0 1 0 0 0 0
2625	137335 11 0 0 0 0 1 0 0 0 0
2635	137346 11 0 0 0 0 1 0 0 0 0
2636	137357 11 0 0 0 0 1 0 0 0 0
2646	137368 11 0 0 0 0 1 0 0 0 0
2647	137379 11 0 0 0 0 1 0 0 0 0
2657	137390 11 0 0 0 0 1 0 0 0 0
2658	137401 11 0 0 0 0 1 0 0 0 0
2711	137412 11 0 0 0 0 1 0 0 0 0
2712	137423 11 0 0 0 0 1 0 0 0 0
2722	137434 11 0 0 0 0 1 0 0 0 0
2723	137445 11 0 0 0 0 1 0 0 0 0
2733	137456 11 0 0 0 0 1 0 0 0 0
2734	137467 11 0 0 0 0 1 0 0 0 0
2744	137478 11 0 0 0 0 1 0 0 0 0
2745	137489 11 0 0 0 0 1 0 0 0 0
2755	137500 11 0 0 0 0 1 0 0 0 0
2756	137511 11 0 0 0 0 1 0 0 0 0
2812	137522 11 0 0 0 0 1 0 0 0 0
2813	137533 11 0 0 0 0 1 0 0 0 0
2823	137544 11 0 0 0 0 1 0 0 0 0
2824	137555 11 0 0 0 0 1 0 0 0 0
2834	137566 11 0 0 0 0 1 0 0 0 0
2835	137577 11 0 0 0 0 1 0 0 0 0
2845	137588 11 0 0 0 0 1 0 0 0 0
2846	137599 11 0 0 0 0 1 0 0 0 0
2899	137610 11 0 0 0 0 1 0 0 0 0
2900	137621 11 0 0 0 0 1 0 0 0 0
2910	137632 11 0 0 0 0 1 0 0 0 0
2911	137643 11 0 0 0 0 1 0 0 0 0
2921	137654 11 0 0 0 0 1 0 0 0 0
2922	137665 11 0 0 0 0 1 0 0 0 0
2932	137676 11 0 0 0 0 1 0 0 0 0
2933	137687 11 0 0 0 0 1 0 0 0 0
2943	137698 11 0 0 0 0 1 0 0 0 0
2944	137709 11 0 0 0 0 1 0 0 0 0
2954	137720 11 0 0 0 0 1 0 0 0 0
2955	137731 11 0 0 0 0 1 0 0 0 0
2965	137742 11 0 0 0 0 1 0 0 0 0
2966	137753 11 0 0 0 0 1 0 0 0 0
3028	137764 11 0 0 0 0 1 0 0 0 0
3029	137775 11 0 0 0 0 1 0 0 0 0
3039	137786 11 0 0 0 0 1 0 0 0 0
3040	137797 11 0 0 0 0 1 0 0 0 0
3050	137808 11 0 0 0 0 1 0 0 0 0
3051	137819 11 0 0 0 0 1 0 0 0 0
3061	137830 11 0 0 0 0 1 0 0 0 0
3062	137841 11 0 0 0 0 1 0 0 0 0
3072	137852 11 0 0 0 0 1 0 0 0 0
3073	137863 11 0 0 0 0 1 0 0 0 0
3129	137874 11 0 0 0 0 1 0 0 0 0
3130	137885 11 0 0 0 0 1 0 0 0 0
3140	137896 11 0 0 0 0 1 0 0 0 0
3141	137907 11 0 0 0 0 1 0 0 0 0
3151	137918 11 0 0 0 0 1 0 0 0 0
3152	137929 11 0 0 0 0 1 0 0 0 0
3162	137940 11 0 0 0 0 1 0 0 0 0
3163	137951 11 0 0 0 0 1 0 0 0 0
3173	137962 11 0 0 0 0 1 0 0 0 0
3174	137973 11 0 0 0 0 1 0 0 0 0
3230	137984 11 0 0 0 0 1 0 0 0 0
3231	137995 11 0 0 0 0 1 0 0 0 0
3241	138006 11 0 0 0 0 1 0 0 0 0
3242	138017 11 0 0 0 0 1 0 0 0 0
3252	138028 11 0 0 0 0 1 0 0 0 0
3253	138039 11 0 0 0 0 1 0 0 0 0
3263	138050 11 0 0 0 0 1 0 0 0 0
3264	138061 11 0 0 0 0 1 0 0 0 0
3317	138072 11 0 0 0 0 1 0 0 0 0
3318	138083 11 0 0 0 0 1 0 0 0 0
3328	138094 11 0 0 0 0 1 0 0 0 0
3329	138105 11 0 0 0 0 1 0 0 0 0
3339	138116 11 0 0 0 0 1 0 0 0 0
3340	138127 11 0 0 0 0 1 0 0 0 0
3350	138138 11 0 0 0 0 1 0 0 0 0
3351	138149 11 0 0 0 0 1 0 0 0 0
3404	138160 11 0 0 0 0 1 0 0 0 0
3405	138171 11 0 0 0 0 1 0 0 0 0
3415	138182 11 0 0 0 0 1 0 0 0 0
3416	138193 11 0 0 0 0 1 0 0 0 0
3426	138204 11 0 0 0 0 1 0 0 0 0
3427	138215 11 0 0 0 0 1 0 0 0 0
3437	138226 11 0 0 0 0 1 0 0 0 0
3438	138237 11 0 0 0 0 1 0 0 0 0
3491	138248 11 0 0 0 0 1 0 0 0 0
3492	138259 11 0 0 0 0 1 0 0 0 0
3502	138270 11 0 0 0 0 1 0 0 0 0
3503	138281 11 0 0 0 0 1 0 0 0 0
3513	138292 11 0 0 0 0 1 0 0 0 0
3514	138303 11 0 0 0 0 1 0 0 0 0
3524	138314 11 0 0 0 0 1 0 0 0 0
3525	138325 11 0 0 0 0 1 0 0 0 0
3535	138336 11 0 0 0 0 1 0 0 0 0
3536	138347 11 0 0 0 0 1 0 0 0 0
3592	138358 11 0 0 0 0 1 0 0 0 0
3593	138369 11 0 0 0 0 1 0 0 0 0
3603	138380 11 0 0 0 0 1 0 0 0 0
3604	138391 11 0 0 0 0 1 0 0 0 0
3614	138402 11 0 0 0 0 1 0 0 0 0
3615	138413 11 0 0 0 0 1 0 0 0 0
3625	138424 11 0 0 0 0 1 0 0 0 0
3626	138435 11 0 0 0 0 1 0 0 0 0
3679	138446 11 0 0 0 0 1 0 0 0 0
3680	138457 11 0 0 0 0 1 0 0 0 0
3690	138468 11 0 0 0 0 1 0 0 0 0
3691	138479 11 0 0 0 0 1 0 0 0 0
3701	138490 11 0 0 0 0 1 0 0 0 0
3702	138501 11 0 0 0 0 1 0 0 0 0
3712	138512 11 0 0 0 0 1 0 0 0 0
3713	138523 11 0 0 0 0 1 0 0 0 0
3723	138534 11 0 0 0 0 1 0 0 0 0
3724	138545 11 0 0 0 0 1 0 0 0 0
3780	138556 11 0 0 0 0 1 0 0 0 0
3781	138567 11 0 0 0 0 1 0 0 0 0
3791	138578 11 0 0 0 0 1 0 0 0 0
3792	138589 11 0 0 0 0 1 0 0 0 0
3802	138600 11 0 0 0 0 1 0 0 0 0
3803	138611 11 0 0 0 0 1 0 0 0 0
3813	138622 11 0 0 0 0 1 0 0 0 0
3814	138633 11 0 0 0 0 1 0 0 0 0
3824	138644 11 0 0 0 0 1 0 0 0 0
3825	138655 11 0 0 0 0 1 0 0 0 0
3881	138666 11 0 0 0 0 1 0 0 0 0
3882	138677 11 0 0 0 0 1 0 0 0 0
3892	138688 11 0 0 0 0 1 0 0 0 0
3893	138699 11 0 0 0 0 1 0 0 0 0
3903	138710 11 0 0 0 0 1 0 0 0 0
3904	138721 11 0 0 0 0 1 0 0 0 0
3914	138732 11 0 0 0 0 1 0 0 0 0
3915	138743 11 0 0 0 0 1 0 0 0 0
3925	138754 11 0 0 0 0 1 0 0 0 0
3926	138765 11 0 0 0 0 1 0 0 0 0
3982	138776 11 0 0 0 0 1 0 0 0 0
3983	138787 11 0 0 0 0 1 0 0 0 0
3993	138798 11 0 0 0 0 1 0 0 0 0
3994	138809 11 0 0 0 0 1 0 0 0 0
4004	138820 11 0 0 0 0 1 0 0 0 0
4005	138831 11 0 0 0 0 1 0 0 0 0
4015	138842 11 0 0 0 0 1 0 0 0 0
4016	138853 11 0 0 0 0 1 0 0 0 0
4069	138864 11 0 0 0 0 1 0 0 0 0
4070	138875 11 0 0 0 0 1 0 0 0 0
4080	138886 11 0 0 0 0 1 0 0 0 0
4081	138897 11 0 0 0 0 1 0 0 0 0
4091	138908 11 0 0 0 0 1 0 0 0 0
4092	138919 11 0 0 0 0 1 0 0 0 0
4102	138930 11 0 0 0 0 1 0 0 0 0
4103	138941 11 0 0 0 0 1 0 0 0 0
4113	138952 11 0 0 0 0 1 0 0 0 0
4114	138963 11 0 0 0 0 1 0 0 0 0
4170	138974 11 0 0 0 0 1 0 0 0 0
4171	138985 11 0 0 0 0 1 0 0 0 0
4181	138996 11 0 0 0 0 1 0 0 0 0
4182	139007 11 0 0 0 0 1 0 0 0 0
4192	139018 11 0 0 0 0 1 0 0 0 0
4193	139029 11 0 0 0 0 1 0 0 0 0
4203	139040 11 0 0 0 0 1 0 0 0 0
4204	139051 11 0 0 0 0 1 0 0 0 0
4214	139062 11 0 0 0 0 1 0 0 0 0
4215	139073 11 0 0 0 0 1 0 0 0 0
4271	139084 11 0 0 0 0 1 0 0 0 0
4272	139095 11 0 0 0 0 1 0 0 0 0
4282	139106 11 0 0 0 0 1 0 0 0 0
4283	139117 11 0 0 0 0 1 0 0 0 0
4293	139128 11 0 0 0 0 1 0 0 0 0
4294	139139 11 0 0 0 0 1 0 0 0 0
4304	139150 11 0 0 0 0 1 0 0 0 0
4305	139161 11 0 0 0 0 1 0 0 0 0
4315	139172 11 0 0 0 0 1 0 0 0 0
4316	139183 11 0 0 0 0 1 0 0 0 0
4372	139194 11 0 0 0 0 1 0 0 0 0
4373	139205 11 0 0 0 0 1 0 0 0 0
4383	139216 11 0 0 0 0 1 0 0 0 0
4384	139227 11 0 0 0 0 1 0 0 0 0
4394	139238 11 0 0 0 0 1 0 0 0 0
4395	139249 11 0 0 0 0 1 0 0 0 0
4405	139260 11 0 0 0 0 1 0 0 0 0
4406	139271 11 0 0 0 0 1 0 0 0 0
4416	139282 11 0 0 0 0 1 0 0 0 0
4417	139293 11 0 0 0 0 1 0 0 0 0
4473	139304 11 0 0 0 0 1 0 0 0 0
4474	139315 11 0 0 0 0 1 0 0 0 0
4484	139326 11 0 0 0 0 1 0 0 0 0
4485	139337 11 0 0 0 0 1 0 0 0 0
4495	139348 11 0 0 0 0 1 0 0 0 0
4496	139359 11 0 0 0 0 1 0 0 0 0
4506	139370 11 0 0 0 0 1 0 0 0 0
4507	139381 11 0 0 0 0 1 0 0 0 0
4517	139392 11 0 0 0 0 1 0 0 0 0
4518	139403 11 0 0 0 0 1 0 0 0 0
4574	139414 11 0 0 0 0 1 0 0 0 0
4575	139425 11 0 0 0 0 1 0 0 0 0
4585	139436 11 0 0 0 0 1 0 0 0 0
4586	139447 11 0 0 0 0 1 0 0 0 0
4596	139458 11 0 0 0 0 1 0 0 0 0
4597	139469 11 0 0 0 0 1 0 0 0 0
4607	139480 11 0 0 0 0 1 0 0 0 0
4608	139491 11 0 0 0 0 1 0 0 0 0
4618	139502 11 0 0 0 0 1 0 0 0 0
4619	139513 11 0 0 0 0 1 0 0 0 0
4675	139524 11 0 0 0 0 1 0 0 0 0
4676	139535 11 0 0 0 0 1 0 0 0 0
4686	139546 11 0 0 0 0 1 0 0 0 0
4687	139557 11 0 0 0 0 1 0 0 0 0
4697	139568 11 0 0 0 0 1 0 0 0 0
4698	139579 11 0 0 0 0 1 0 0 0 0
4708	139590 11 0 0 0 0 1 0 0 0 0
4709	139601 11 0 0 0 0 1 0 0 0 0
4719	139612 11 0 0 0 0 1 0 0 0 0
4720	139623 11 0 0 0 0 1 0 0 0 0
4776	139634 11 0 0 0 0 1 0 0 0 0
4777	139645 11 0 0 0 0 1 0 0 0 0
4787	139656 11 0 0 0 0 1 0 0 0 0
4788	139667 11 0 0 0 0 1 0 0 0 0
4798	139678 11 0 0 0 0 1 0 0 0 0
4799	139689 11 0 0 0 0 1 0 0 0 0
4809	139700 11 0 0 0 0 1 0 0 0 0
4810	139711 11 0 0 0 0 1 0 0 0 0
4820	139722 11 0 0 0 0 1 0 0 0 0
4821	139733 11 0 0 0 0 1 0 0 0 0
4877	139744 11 0 0 0 0 1 0 0 0 0
4878	139755 11 0 0 0 0 1 0 0 0 0
4888	139766 11 0 0 0 0 1 0 0 0 0
4889	139777 11 0 0 0 0 1 0 0 0 0
4899	139788 11 0 0 0 0 1 0 0 0 0
4900	139799 11 0 0 0 0 1 0 0 0 0
4910	139810 11 0 0 0 0 1 0 0 0 0
4911	139821 11 0 0 0 0 1 0 0 0 0
4964	139832 11 0 0 0 0 1 0 0 0 0
4965	139843 11 0 0 0 0 1 0 0 0 0
4975	139854 11 0 0 0 0 1 0 0 0 0
4976	139865 11 0 0 0 0 1 0 0 0 0
4986	139876 11 0 0 0 0 1 0 0 0 0
4987	139887 11 0 0 0 0 1 0 0 0 0
4997	139898 11 0 0 0 0 1 0 0 0 0
4998	139909 11 0 0 0 0 1 0 0 0 0
5051	139920 11 0 0 0 0 1 0 0 0 0
5052	139931 11 0 0 0 0 1 0 0 0 0
5062	139942 11 0 0 0 0 1 0 0 0 0
5063	139953 11 0 0 0 0 1 0 0 0 0
5073	139964 11 0 0 0 0 1 0 0 0 0
5074	139975 11 0 0 0 0 1 0 0 0 0
5084	139986 11 0 0 0 0 1 0 0 0 0
5085	139997 11 0 0 0 0 1 0 0 0 0
5138	140008 11 0 0 0 0 1 0 0 0 0
5139	140019 11 0 0 0 0 1 0 0 0 0
5149	140030 11 0 0 0 0 1 0 0 0 0
5150	140041 11 0 0 0 0 1 0 0 0 0
5160	140052 11 0 0 0 0 1 0 0 0 0
5161	140063 11 0 0 0 0 1 0 0 0 0
5171	140074 11 0 0 0 0 1 0 0 0 0
5172	140085 11 0 0 0 0 1 0 0 0 0
5182	140096 11 0 0 0 0 1 0 0 0 0
5183	140107 11 0 0 0 0 1 0 0 0 0
5239	140118 11 0 0 0 0 1 0 0 0 0
5240	140129 11 0 0 0 0 1 0 0 0 0
5250	140140 11 0 0 0 0 1 0 0 0 0
5251	140151 11 0 0 0 0 1 0 0 0 0
5261	140162 11 0 0 0 0 1 0 0 0 0
5262	140173 11 0 0 0 0 1 0 0 0 0
5272	140184 11 0 0 0 0 1 0 0 0 0
5273	140195 11 0 0 0 0 1 0 0 0 0
5283	140206 11 0 0 0 0 1 0 0 0 0
5284	140217 11 0 0 0 0 1 0 0 0 0
5340	140228 11 0 0 0 0 1 0 0 0 0
5341	140239 11 0 0 0 0 1 0 0 0 0
5351	140250 11 0 0 0 0 1 0 0 0 0
5352	140261 11 0 0 0 0 1 0 0 0 0
5362	140272 11 0 0 0 0 1 0 0 0 0
5363	140283 11 0 0 0 0 1 0 0 0 0
5373	140294 11 0 0 0 0 1 0 0 0 0
5374	140305 11 0 0 0 0 1 0 0 0 0
5384	140316 11 0 0 0 0 1 0 0 0 0
5385	140327 11 0 0 0 0 1 0 0 0 0
5441	140338 11 0 0 0 0 1 0 0 0 0
5442	140349 11 0 0 0 0 1 0 0 0 0
5452	140360 11 0 0 0 0 1 0 0 0 0
5453	140371 11 0 0 0 0 1 0 0 0 0
5463	140382 11 0 0 0 0 1 0 0 0 0
5464	140393 11 0 0 0 0 1 0 0 0 0
5474	140404 11 0 0 0 0 1 0 0 0 0
5475	140415 11 0 0 0 0 1 0 0 0 0
5528	140426 11 0 0 0 0 1 0 0 0 0
5529	140437 11 0 0 0 0 1 0 0 0 0
5539	140448 11 0 0 0 0 1 0 0 0 0
5540	140459 11 0 0 0 0 1 0 0 0 0
5550	140470 11 0 0 0 0 1 0 0 0 0
5551	140481 11 0 0 0 0 1 0 0 0 0
5561	140492 11 0 0 0 0 1 0 0 0 0
5562	140503 11 0 0 0 0 1 0 0 0 0
5572	140514 11 0 0 0 0 1 0 0 0 0
5573	140525 11 0 0 0 0 1 0 0 0 0
5629	140536 11 0 0 0 0 1 0 0 0 0
5630	140547 11 0 0 0 0 1 0 0 0 0
5640	140558 11 0 0 0 0 1 0 0 0 0
5641	140569 11 0 0 0 0 1 0 0 0 0
5651	140580 11 0 0 0 0 1 0 0 0 0
5652	140591 11 0 0 0 0 1 0 0 0 0
5662	140602 11 0 0 0 0 1 0 0 0 0
5663	140613 11 0 0 0 0 1 0 0 0 0
5673	140624 11 0 0 0 0 1 0 0 0 0
5674	140635 11 0 0 0 0 1 0 0 0 0
5684	140646 11 0 0 0 0 1 0 0 0 0
5685	140657 11 0 0 0 0 1 0 0 0 0
5695	140668 11 0 0 0 0 1 0 0 0 0
5696	140679 11 0 0 0 0 1 0 0 0 0
5706	140690 11 0 0 0 0 1 0 0 0 0
5707	140701 11 0 0 0 0 1 0 0 0 0
5772	140712 11 0 0 0 0 1 0 0 0 0
5773	140723 11 0 0 0 0 1 0 0 0 0
5783	140734 11 0 0 0 0 1 0 0 0 0
5784	140745 11 0 0 0 0 1 0 0 0 0
5794	140756 11 0 0 0 0 1 0 0 0 0
5795	140767 11 0 0 0 0 1 0 0 0 0
5805	140778 11 0 0 0 0 1 0 0 0 0
5806	140789 11 0 0 0 0 1 0 0 0 0
5816	140800 11 0 0 0 0 1 0 0 0 0
5817	140811 11 0 0 0 0 1 0 0 0 0
5873	140822 11 0 0 0 0 1 0 0 0 0
5874	140833 11 0 0 0 0 1 0 0 0 0
5884	140844 11 0 0 0 0 1 0 0 0 0
5885	140855 11 0 0 0 0 1 0 0 0 0
5895	140866 11 0 0 0 0 1 0 0 0 0
5896	140877 11 0 0 0 0 1 0 0 0 0
5906	140888 11 0 0 0 0 1 0 0 0 0
5907	140899 11 0 0 0 0 1 0 0 0 0
5917	140910 11 0 0 0 0 1 0 0 0 0
5918	140921 11 0 0 0 0 1 0 0 0 0
5974	140932 11 0 0 0 0 1 0 0 0 0
5975	140943 11 0 0 0 0 1 0 0 0 0
5985	140954 11 0 0 0 0 1 0 0 0 0
5986	140965 11 0 0 0 0 1 0 0 0 0
5996	140976 11 0 0 0 0 1 0 0 0 0
5997	140987 11 0 0 0 0 1 0 0 0 0
6007	140998 11 0 0 0 0 1 0 0 0 0
6008	141009 11 0 0 0 0 1 0 0 0 0
6061	141020 11 0 0 0 0 1 0 0 0 0
6062	141031 11 0 0 0 0 1 0 0 0 0
6072	141042 11 0 0 0 0 1 0 0 0 0
6073	141053 11 0 0 0 0 1 0 0 0 0
6083	141064 11 0 0 0 0 1 0 0 0 0
6084	141075 11 0 0 0 0 1 0 0 0 0
6094	141086 11 0 0 0 0 1 0 0 0 0
6095	141097 11 0 0 0 0 1 0 0 0 0
6148	141108 11 0 0 0 0 1 0 0 0 0
6149	141119 11 0 0 0 0 1 0 0 0 0
6159	141130 11 0 0 0 0 1 0 0 0 0
6160	141141 11 0 0 0 0 1 0 0 0 0
6170	141152 11 0 0 0 0 1 0 0 0 0
6171	141163 11 0 0 0 0 1 0 0 0 0
6181	141174 11 0 0 0 0 1 0 0 0 0
6182	141185 11 0 0 0 0 1 0 0 0 0
6235	141196 11 0 0 0 0 1 0 0 0 0
6236	141207 11 0 0 0 0 1 0 0 0 0
6246	141218 11 0 0 0 0 1 0 0 0 0
6247	141229 11 0 0 0 0 1 0 0 0 0
6257	141240 11 0 0 0 0 1 0 0 0 0
6258	141251 11 0 0 0 0 1 0 0 0 0
6268	141262 11 0 0 0 0 1 0 0 0 0
6269	141273 11 0 0 0 0 1 0 0 0 0
6322	141284 11 0 0 0 0 1 0 0 0 0
6323	141295 11 0 0 0 0 1 0 0 0 0
6333	141306 11 0 0 0 0 1 0 0 0 0
6334	141317 11 0 0 0 0 1 0 0 0 0
6344	141328 11 0 0 0 0 1 0 0 0 0
6345	141339 11 0 0 0 0 1 0 0 0 0
6355	141350 11 0 0 0 0 1 0 0 0 0
6356	141361 11 0 0 0 0 1 0 0 0 0
6409	141372 11 0 0 0 0 1 0 0 0 0
6410	141383 11 0 0 0 0 1 0 0 0 0
6420	141394 11 0 0 0 0 1 0 0 0 0
6421	141405 11 0 0 0 0 1 0 0 0 0
6431	141416 11 0 0 0 0 1 0 0 0 0
6432	141427 11 0 0 0 0 1 0 0 0 0
6442	141438 11 0 0 0 0 1 0 0 0 0
6443	141449 11 0 0 0 0 1 0 0 0 0
6496	141460 11 0 0 0 0 1 0 0 0 0
6497	141471 11 0 0 0 0 1 0 0 0 0
6507	141482 11 0 0 0 0 1 0 0 0 0
6508	141493 11 0 0 0 0 1 0 0 0 0
6518	141504 11 0 0 0 0 1 0 0 0 0
6519	141515 11 0 0 0 0 1 0 0 0 0
6529	141526 11 0 0 0 0 1 0 0 0 0
6530	141537 11 0 0 0 0 1 0 0 0 0
6540	141548 11 0 0 0 0 1 0 0 0 0
6541	141559 11 0 0 0 0 1 0 0 0 0
6551	141570 11 0 0 0 0 1 0 0 0 0
6552	141581 11 0 0 0 0 1 0 0 0 0
6562	141592 11 0 0 0 0 1 0 0 0 0
6563	141603 11 0 0 0 0 1 0 0 0 0
6573	141614 11 0 0 0 0 1 0 0 0 0
6574	141625 11 0 0 0 0 1 0 0 0 0
6639	141636 11 0 0 0 0 1 0 0 0 0
6640	141647 11 0 0 0 0 1 0 0 0 0
6650	141658 11 0 0 0 0 1 0 0 0 0
6651	141669 11 0 0 0 0 1 0 0 0 0
6661	141680 11 0 0 0 0 1 0 0 0 0
6662	141691 11 0 0 0 0 1 0 0 0 0
6672	141702 11 0 0 0 0 1 0 0 0 0
6673	141713 11 0 0 0 0 1 0 0 0 0
6683	141724 11 0 0 0 0 1 0 0 0 0
6684	141735 11 0 0 0 0 1 0 0 0 0
6694	141746 11 0 0 0 0 1 0 0 0 0
6695	141757 11 0 0 0 0 1 0 0 0 0
6754	141768 11 0 0 0 0 1 0 0 0 0
6755	141779 11 0 0 0 0 1 0 0 0 0
6765	141790 11 0 0 0 0 1 0 0 0 0
6766	141801 11 0 0 0 0 1 0 0 0 0
6776	141812 11 0 0 0 0 1 0 0 0 0
6777	141823 11 0 0 0 0 1 0 0 0 0
6787	141834 11 0 0 0 0 1 0 0 0 0
6788	141845 11 0 0 0 0 1 0 0 0 0
6798	141856 11 0 0 0 0 1 0 0 0 0
6799	141867 11 0 0 0 0 1 0 0 0 0
6855	141878 11 0 0 0 0 1 0 0 0 0
6856	141889 11 0 0 0 0 1 0 0 0 0
6866	141900 11 0 0 0 0 1 0 0 0 0
6867	141911 11 0 0 0 0 1 0 0 0 0
6877	141922 11 0 0 0 0 1 0 0 0 0
6878	141933 11 0 0 0 0 1 0 0 0 0
6888	141944 11 0 0 0 0 1 0 0 0 0
6889	141955 11 0 0 0 0 1 0 0 0 0
6942	141966 11 0 0 0 0 1 0 0 0 0
6943	141977 11 0 0 0 0 1 0 0 0 0
6953	141988 11 0 0 0 0 1 0 0 0 0
6954	141999 11 0 0 0 0 1 0 0 0 0
6964	142010 11 0 0 0 0 1 0 0 0 0
6965	142021 11 0 0 0 0 1 0 0 0 0
6975	142032 11 0 0 0 0 1 0 0 0 0
6976	142043 11 0 0 0 0 1 0 0 0 0
6986	142054 11 0 0 0 0 1 0 0 0 0
6987	142065 11 0 0 0 0 1 0 0 0 0
6997	142076 11 0 0 0 0 1 0 0 0 0
6998	142087 11 0 0 0 0 1 0 0 0 0
7057	142098 11 0 0 0 0 1 0 0 0 0
7058	142109 11 0 0 0 0 1 0 0 0 0
7068	142120 11 0 0 0 0 1 0 0 0 0
7069	142131 11 0 0 0 0 1 0 0 0 0
7079	142142 11 0 0 0 0 1 0 0 0 0
7080	142153 11 0 0 0 0 1 0 0 0 0
7090	142164 11 0 0 0 0 1 0 0 0 0
7091	142175 11 0 0 0 0 1 0 0 0 0
7144	142186 11 0 0 0 0 1 0 0 0 0
7145	142197 11 0 0 0 0 1 0 0 0 0
7155	142208 11 0 0 0 0 1 0 0 0 0
7156	142219 11 0 0 0 0 1 0 0 0 0
7166	142230 11 0 0 0 0 1 0 0 0 0
7167	142241 11 0 0 0 0 1 0 0 0 0
7177	142252 11 0 0 0 0 1 0 0 0 0
7178	142263 11 0 0 0 0 1 0 0 0 0
7188	142274 11 0 0 0 0 1 0 0 0 0
7189	142285 11 0 0 0 0 1 0 0 0 0
7245	142296 11 0 0 0 0 1 0 0 0 0
7246	142307 11 0 0 0 0 1 0 0 0 0
7256	142318 11 0 0 0 0 1 0 0 0 0
7257	142329 11 0 0 0 0 1 0 0 0 0
7267	142340 11 0 0 0 0 1 0 0 0 0
7268	142351 11 0 0 0 0 1 0 0 0 0
7278	142362 11 0 0 0 0 1 0 0 0 0
7279	142373 11 0 0 0 0 1 0 0 0 0
7289	142384 11 0 0 0 0 1 0 0 0 0
7290	142395 11 0 0 0 0 1 0 0 0 0
