version 2
run General-0-20190114-15:21:17-20790
attr configname General
attr datetime 20190114-15:21:17
attr experiment General
attr inifile omnetpp.ini
attr iterationvars $numUEs=10
attr iterationvarsf numUEs=10-
attr measurement $numUEs=10
attr network ErlangenLTE
attr numUEs 10
attr processid 20790
attr repetition 0
attr replication #0
attr resultdir results
attr runnumber 0
attr seedset 0
param **.broadcastMessageInterval 0.5s
param **.car[*].macCellId 1
param **.car[*].masterId 1
param **.channelControl.alpha 1.0
param **.channelControl.carrierFrequency 2100e+6Hz
param **.channelControl.pMax 10W
param **.coreDebug false
param **.deployer.antennaCws "\"2;\""
param **.deployer.numRbDl 25
param **.deployer.numRbUl 25
param **.deployer.positionUpdateInterval 0.001s
param **.deployer.ruRange 50
param **.deployer.ruTxPower "\"50,50,50;\""
param **.dynamicCellAssociation true
param **.eNodeB*.mobility.constraintAreaMaxX 2500m
param **.eNodeB*.mobility.constraintAreaMaxY 2500m
param **.eNodeB*.mobility.constraintAreaMaxZ 0m
param **.eNodeB*.mobility.constraintAreaMinX 0m
param **.eNodeB*.mobility.constraintAreaMinY 0m
param **.eNodeB*.mobility.constraintAreaMinZ 0m
param **.eNodeB*.mobility.initFromDisplayString true
param **.eNodeB1.macCellId 1
param **.eNodeB1.macNodeId 1
param **.eNodeB10.macCellId 10
param **.eNodeB10.macNodeId 10
param **.eNodeB11.macCellId 11
param **.eNodeB11.macNodeId 11
param **.eNodeB12.macCellId 12
param **.eNodeB12.macNodeId 12
param **.eNodeB13.macCellId 13
param **.eNodeB13.macNodeId 13
param **.eNodeB14.macCellId 14
param **.eNodeB14.macNodeId 14
param **.eNodeB15.macCellId 15
param **.eNodeB15.macNodeId 15
param **.eNodeB16.macCellId 16
param **.eNodeB16.macNodeId 16
param **.eNodeB17.macCellId 17
param **.eNodeB17.macNodeId 17
param **.eNodeB18.macCellId 18
param **.eNodeB18.macNodeId 18
param **.eNodeB19.macCellId 19
param **.eNodeB19.macNodeId 19
param **.eNodeB2.macCellId 2
param **.eNodeB2.macNodeId 2
param **.eNodeB20.macCellId 20
param **.eNodeB20.macNodeId 20
param **.eNodeB21.macCellId 21
param **.eNodeB21.macNodeId 21
param **.eNodeB22.macCellId 22
param **.eNodeB22.macNodeId 22
param **.eNodeB23.macCellId 23
param **.eNodeB23.macNodeId 23
param **.eNodeB24.macCellId 24
param **.eNodeB24.macNodeId 24
param **.eNodeB25.macCellId 25
param **.eNodeB25.macNodeId 25
param **.eNodeB26.macCellId 26
param **.eNodeB26.macNodeId 26
param **.eNodeB27.macCellId 27
param **.eNodeB27.macNodeId 27
param **.eNodeB28.macCellId 28
param **.eNodeB28.macNodeId 28
param **.eNodeB29.macCellId 29
param **.eNodeB29.macNodeId 29
param **.eNodeB3.macCellId 3
param **.eNodeB3.macNodeId 3
param **.eNodeB30.macCellId 30
param **.eNodeB30.macNodeId 30
param **.eNodeB31.macCellId 31
param **.eNodeB31.macNodeId 31
param **.eNodeB32.macCellId 32
param **.eNodeB32.macNodeId 32
param **.eNodeB33.macCellId 33
param **.eNodeB33.macNodeId 33
param **.eNodeB34.macCellId 34
param **.eNodeB34.macNodeId 34
param **.eNodeB35.macCellId 35
param **.eNodeB35.macNodeId 35
param **.eNodeB36.macCellId 36
param **.eNodeB36.macNodeId 36
param **.eNodeB37.macCellId 37
param **.eNodeB37.macNodeId 37
param **.eNodeB38.macCellId 38
param **.eNodeB38.macNodeId 38
param **.eNodeB39.macCellId 39
param **.eNodeB39.macNodeId 39
param **.eNodeB4.macCellId 4
param **.eNodeB4.macNodeId 4
param **.eNodeB40.macCellId 40
param **.eNodeB40.macNodeId 40
param **.eNodeB41.macCellId 41
param **.eNodeB41.macNodeId 41
param **.eNodeB42.macCellId 42
param **.eNodeB42.macNodeId 42
param **.eNodeB43.macCellId 43
param **.eNodeB43.macNodeId 43
param **.eNodeB44.macCellId 44
param **.eNodeB44.macNodeId 44
param **.eNodeB45.macCellId 45
param **.eNodeB45.macNodeId 45
param **.eNodeB46.macCellId 46
param **.eNodeB46.macNodeId 46
param **.eNodeB47.macCellId 47
param **.eNodeB47.macNodeId 47
param **.eNodeB48.macCellId 48
param **.eNodeB48.macNodeId 48
param **.eNodeB49.macCellId 49
param **.eNodeB49.macNodeId 49
param **.eNodeB5.macCellId 5
param **.eNodeB5.macNodeId 5
param **.eNodeB50.macCellId 50
param **.eNodeB50.macNodeId 50
param **.eNodeB51.macCellId 51
param **.eNodeB51.macNodeId 51
param **.eNodeB52.macCellId 52
param **.eNodeB52.macNodeId 52
param **.eNodeB53.macCellId 53
param **.eNodeB53.macNodeId 53
param **.eNodeB54.macCellId 54
param **.eNodeB54.macNodeId 54
param **.eNodeB55.macCellId 55
param **.eNodeB55.macNodeId 55
param **.eNodeB56.macCellId 56
param **.eNodeB56.macNodeId 56
param **.eNodeB57.macCellId 57
param **.eNodeB57.macNodeId 57
param **.eNodeB58.macCellId 58
param **.eNodeB58.macNodeId 58
param **.eNodeB59.macCellId 59
param **.eNodeB59.macNodeId 59
param **.eNodeB6.macCellId 6
param **.eNodeB6.macNodeId 6
param **.eNodeB60.macCellId 60
param **.eNodeB60.macNodeId 60
param **.eNodeB61.macCellId 61
param **.eNodeB61.macNodeId 61
param **.eNodeB62.macCellId 62
param **.eNodeB62.macNodeId 62
param **.eNodeB63.macCellId 63
param **.eNodeB63.macNodeId 63
param **.eNodeB64.macCellId 64
param **.eNodeB64.macNodeId 64
param **.eNodeB65.macCellId 65
param **.eNodeB65.macNodeId 65
param **.eNodeB66.macCellId 66
param **.eNodeB66.macNodeId 66
param **.eNodeB7.macCellId 7
param **.eNodeB7.macNodeId 7
param **.eNodeB8.macCellId 8
param **.eNodeB8.macNodeId 8
param **.eNodeB9.macCellId 9
param **.eNodeB9.macNodeId 9
param **.eNodeBCount 66
param **.enableHandover true
param **.fbDelay 1
param **.feedbackComputation "xmldoc(\"config_channel.xml\")"
param **.feedbackGeneratorType "\"IDEAL\""
param **.feedbackType "\"ALLBANDS\""
param **.lteNic.phy.channelModel "xmldoc(\"config_channel.xml\")"
param **.maxHarqRtx 3
param **.numBands 25
param **.numUe 10
param **.rbAllocationType "\"localized\""
param **.routingRecorder.enabled false
param **.sctp.enableHeartbeats false
param **.sctp.nagleEnabled false
param *.annotations.draw true
param *.car[*].configurator.mcastGroups "\"224.0.0.10\""
param *.car[*].mobilityType "\"VeinsInetMobility\""
param *.eNodeB*.x2App[*].server.localPort "5000 + ancestorIndex(1)"
param *.eNodeB1.numX2Apps 5
param *.eNodeB1.x2App[0].client.connectAddress "\"eNodeB22%x2ppp0\""
param *.eNodeB1.x2App[1].client.connectAddress "\"eNodeB41%x2ppp0\""
param *.eNodeB1.x2App[2].client.connectAddress "\"eNodeB50%x2ppp0\""
param *.eNodeB1.x2App[3].client.connectAddress "\"eNodeB14%x2ppp0\""
param *.eNodeB1.x2App[4].client.connectAddress "\"eNodeB43%x2ppp0\""
param *.eNodeB10.numX2Apps 5
param *.eNodeB10.x2App[0].client.connectAddress "\"eNodeB13%x2ppp1\""
param *.eNodeB10.x2App[1].client.connectAddress "\"eNodeB57%x2ppp0\""
param *.eNodeB10.x2App[2].client.connectAddress "\"eNodeB63%x2ppp0\""
param *.eNodeB10.x2App[3].client.connectAddress "\"eNodeB47%x2ppp2\""
param *.eNodeB10.x2App[4].client.connectAddress "\"eNodeB64%x2ppp0\""
param *.eNodeB11.numX2Apps 3
param *.eNodeB11.x2App[0].client.connectAddress "\"eNodeB22%x2ppp1\""
param *.eNodeB11.x2App[1].client.connectAddress "\"eNodeB40%x2ppp0\""
param *.eNodeB11.x2App[2].client.connectAddress "\"eNodeB54%x2ppp0\""
param *.eNodeB12.numX2Apps 3
param *.eNodeB12.x2App[0].client.connectAddress "\"eNodeB3%x2ppp0\""
param *.eNodeB12.x2App[1].client.connectAddress "\"eNodeB30%x2ppp1\""
param *.eNodeB12.x2App[2].client.connectAddress "\"eNodeB62%x2ppp1\""
param *.eNodeB13.numX2Apps 7
param *.eNodeB13.x2App[0].client.connectAddress "\"eNodeB8%x2ppp1\""
param *.eNodeB13.x2App[1].client.connectAddress "\"eNodeB10%x2ppp0\""
param *.eNodeB13.x2App[2].client.connectAddress "\"eNodeB31%x2ppp1\""
param *.eNodeB13.x2App[3].client.connectAddress "\"eNodeB63%x2ppp1\""
param *.eNodeB13.x2App[4].client.connectAddress "\"eNodeB35%x2ppp0\""
param *.eNodeB13.x2App[5].client.connectAddress "\"eNodeB47%x2ppp3\""
param *.eNodeB13.x2App[6].client.connectAddress "\"eNodeB57%x2ppp1\""
param *.eNodeB14.numX2Apps 4
param *.eNodeB14.x2App[0].client.connectAddress "\"eNodeB1%x2ppp0\""
param *.eNodeB14.x2App[1].client.connectAddress "\"eNodeB41%x2ppp1\""
param *.eNodeB14.x2App[2].client.connectAddress "\"eNodeB66%x2ppp0\""
param *.eNodeB14.x2App[3].client.connectAddress "\"eNodeB22%x2ppp2\""
param *.eNodeB15.numX2Apps 4
param *.eNodeB15.x2App[0].client.connectAddress "\"eNodeB28%x2ppp0\""
param *.eNodeB15.x2App[1].client.connectAddress "\"eNodeB60%x2ppp0\""
param *.eNodeB15.x2App[2].client.connectAddress "\"eNodeB64%x2ppp1\""
param *.eNodeB15.x2App[3].client.connectAddress "\"eNodeB16%x2ppp0\""
param *.eNodeB16.numX2Apps 3
param *.eNodeB16.x2App[0].client.connectAddress "\"eNodeB15%x2ppp0\""
param *.eNodeB16.x2App[1].client.connectAddress "\"eNodeB59%x2ppp0\""
param *.eNodeB16.x2App[2].client.connectAddress "\"eNodeB61%x2ppp0\""
param *.eNodeB17.numX2Apps 4
param *.eNodeB17.x2App[0].client.connectAddress "\"eNodeB4%x2ppp0\""
param *.eNodeB17.x2App[1].client.connectAddress "\"eNodeB20%x2ppp1\""
param *.eNodeB17.x2App[2].client.connectAddress "\"eNodeB49%x2ppp1\""
param *.eNodeB17.x2App[3].client.connectAddress "\"eNodeB56%x2ppp0\""
param *.eNodeB18.numX2Apps 3
param *.eNodeB18.x2App[0].client.connectAddress "\"eNodeB19%x2ppp0\""
param *.eNodeB18.x2App[1].client.connectAddress "\"eNodeB40%x2ppp1\""
param *.eNodeB18.x2App[2].client.connectAddress "\"eNodeB48%x2ppp0\""
param *.eNodeB19.numX2Apps 3
param *.eNodeB19.x2App[0].client.connectAddress "\"eNodeB18%x2ppp0\""
param *.eNodeB19.x2App[1].client.connectAddress "\"eNodeB35%x2ppp1\""
param *.eNodeB19.x2App[2].client.connectAddress "\"eNodeB48%x2ppp1\""
param *.eNodeB2.numX2Apps 3
param *.eNodeB2.x2App[0].client.connectAddress "\"eNodeB5%x2ppp0\""
param *.eNodeB2.x2App[1].client.connectAddress "\"eNodeB7%x2ppp0\""
param *.eNodeB2.x2App[2].client.connectAddress "\"eNodeB32%x2ppp0\""
param *.eNodeB20.numX2Apps 4
param *.eNodeB20.x2App[0].client.connectAddress "\"eNodeB4%x2ppp1\""
param *.eNodeB20.x2App[1].client.connectAddress "\"eNodeB17%x2ppp1\""
param *.eNodeB20.x2App[2].client.connectAddress "\"eNodeB49%x2ppp2\""
param *.eNodeB20.x2App[3].client.connectAddress "\"eNodeB55%x2ppp1\""
param *.eNodeB21.numX2Apps 3
param *.eNodeB21.x2App[0].client.connectAddress "\"eNodeB23%x2ppp0\""
param *.eNodeB21.x2App[1].client.connectAddress "\"eNodeB36%x2ppp0\""
param *.eNodeB21.x2App[2].client.connectAddress "\"eNodeB38%x2ppp0\""
param *.eNodeB22.numX2Apps 6
param *.eNodeB22.x2App[0].client.connectAddress "\"eNodeB1%x2ppp1\""
param *.eNodeB22.x2App[1].client.connectAddress "\"eNodeB11%x2ppp0\""
param *.eNodeB22.x2App[2].client.connectAddress "\"eNodeB14%x2ppp1\""
param *.eNodeB22.x2App[3].client.connectAddress "\"eNodeB54%x2ppp1\""
param *.eNodeB22.x2App[4].client.connectAddress "\"eNodeB43%x2ppp1\""
param *.eNodeB22.x2App[5].client.connectAddress "\"eNodeB66%x2ppp1\""
param *.eNodeB23.numX2Apps 4
param *.eNodeB23.x2App[0].client.connectAddress "\"eNodeB21%x2ppp0\""
param *.eNodeB23.x2App[1].client.connectAddress "\"eNodeB36%x2ppp1\""
param *.eNodeB23.x2App[2].client.connectAddress "\"eNodeB38%x2ppp1\""
param *.eNodeB23.x2App[3].client.connectAddress "\"eNodeB44%x2ppp0\""
param *.eNodeB24.numX2Apps 4
param *.eNodeB24.x2App[0].client.connectAddress "\"eNodeB59%x2ppp1\""
param *.eNodeB24.x2App[1].client.connectAddress "\"eNodeB60%x2ppp1\""
param *.eNodeB24.x2App[2].client.connectAddress "\"eNodeB65%x2ppp0\""
param *.eNodeB24.x2App[3].client.connectAddress "\"eNodeB39%x2ppp0\""
param *.eNodeB25.numX2Apps 3
param *.eNodeB25.x2App[0].client.connectAddress "\"eNodeB5%x2ppp1\""
param *.eNodeB25.x2App[1].client.connectAddress "\"eNodeB46%x2ppp1\""
param *.eNodeB25.x2App[2].client.connectAddress "\"eNodeB52%x2ppp0\""
param *.eNodeB26.numX2Apps 3
param *.eNodeB26.x2App[0].client.connectAddress "\"eNodeB39%x2ppp1\""
param *.eNodeB26.x2App[1].client.connectAddress "\"eNodeB59%x2ppp2\""
param *.eNodeB26.x2App[2].client.connectAddress "\"eNodeB61%x2ppp1\""
param *.eNodeB27.numX2Apps 3
param *.eNodeB27.x2App[0].client.connectAddress "\"eNodeB9%x2ppp0\""
param *.eNodeB27.x2App[1].client.connectAddress "\"eNodeB34%x2ppp2\""
param *.eNodeB27.x2App[2].client.connectAddress "\"eNodeB58%x2ppp1\""
param *.eNodeB28.numX2Apps 4
param *.eNodeB28.x2App[0].client.connectAddress "\"eNodeB15%x2ppp1\""
param *.eNodeB28.x2App[1].client.connectAddress "\"eNodeB60%x2ppp2\""
param *.eNodeB28.x2App[2].client.connectAddress "\"eNodeB64%x2ppp2\""
param *.eNodeB28.x2App[3].client.connectAddress "\"eNodeB65%x2ppp1\""
param *.eNodeB29.numX2Apps 3
param *.eNodeB29.x2App[0].client.connectAddress "\"eNodeB51%x2ppp0\""
param *.eNodeB29.x2App[1].client.connectAddress "\"eNodeB52%x2ppp1\""
param *.eNodeB29.x2App[2].client.connectAddress "\"eNodeB53%x2ppp0\""
param *.eNodeB3.numX2Apps 6
param *.eNodeB3.x2App[0].client.connectAddress "\"eNodeB12%x2ppp0\""
param *.eNodeB3.x2App[1].client.connectAddress "\"eNodeB46%x2ppp0\""
param *.eNodeB3.x2App[2].client.connectAddress "\"eNodeB62%x2ppp0\""
param *.eNodeB3.x2App[3].client.connectAddress "\"eNodeB30%x2ppp0\""
param *.eNodeB3.x2App[4].client.connectAddress "\"eNodeB32%x2ppp1\""
param *.eNodeB3.x2App[5].client.connectAddress "\"eNodeB55%x2ppp0\""
param *.eNodeB30.numX2Apps 4
param *.eNodeB30.x2App[0].client.connectAddress "\"eNodeB12%x2ppp1\""
param *.eNodeB30.x2App[1].client.connectAddress "\"eNodeB3%x2ppp1\""
param *.eNodeB30.x2App[2].client.connectAddress "\"eNodeB32%x2ppp2\""
param *.eNodeB30.x2App[3].client.connectAddress "\"eNodeB62%x2ppp2\""
param *.eNodeB31.numX2Apps 4
param *.eNodeB31.x2App[0].client.connectAddress "\"eNodeB8%x2ppp2\""
param *.eNodeB31.x2App[1].client.connectAddress "\"eNodeB13%x2ppp2\""
param *.eNodeB31.x2App[2].client.connectAddress "\"eNodeB63%x2ppp2\""
param *.eNodeB31.x2App[3].client.connectAddress "\"eNodeB35%x2ppp2\""
param *.eNodeB32.numX2Apps 4
param *.eNodeB32.x2App[0].client.connectAddress "\"eNodeB2%x2ppp2\""
param *.eNodeB32.x2App[1].client.connectAddress "\"eNodeB30%x2ppp2\""
param *.eNodeB32.x2App[2].client.connectAddress "\"eNodeB3%x2ppp2\""
param *.eNodeB32.x2App[3].client.connectAddress "\"eNodeB46%x2ppp2\""
param *.eNodeB33.numX2Apps 3
param *.eNodeB33.x2App[0].client.connectAddress "\"eNodeB6%x2ppp0\""
param *.eNodeB33.x2App[1].client.connectAddress "\"eNodeB45%x2ppp1\""
param *.eNodeB33.x2App[2].client.connectAddress "\"eNodeB51%x2ppp1\""
param *.eNodeB34.numX2Apps 4
param *.eNodeB34.x2App[0].client.connectAddress "\"eNodeB5%x2ppp2\""
param *.eNodeB34.x2App[1].client.connectAddress "\"eNodeB9%x2ppp1\""
param *.eNodeB34.x2App[2].client.connectAddress "\"eNodeB27%x2ppp1\""
param *.eNodeB34.x2App[3].client.connectAddress "\"eNodeB53%x2ppp1\""
param *.eNodeB35.numX2Apps 4
param *.eNodeB35.x2App[0].client.connectAddress "\"eNodeB19%x2ppp1\""
param *.eNodeB35.x2App[1].client.connectAddress "\"eNodeB13%x2ppp3\""
param *.eNodeB35.x2App[2].client.connectAddress "\"eNodeB31%x2ppp2\""
param *.eNodeB35.x2App[3].client.connectAddress "\"eNodeB63%x2ppp3\""
param *.eNodeB36.numX2Apps 4
param *.eNodeB36.x2App[0].client.connectAddress "\"eNodeB21%x2ppp1\""
param *.eNodeB36.x2App[1].client.connectAddress "\"eNodeB23%x2ppp1\""
param *.eNodeB36.x2App[2].client.connectAddress "\"eNodeB38%x2ppp2\""
param *.eNodeB36.x2App[3].client.connectAddress "\"eNodeB44%x2ppp1\""
param *.eNodeB37.numX2Apps 4
param *.eNodeB37.x2App[0].client.connectAddress "\"eNodeB6%x2ppp1\""
param *.eNodeB37.x2App[1].client.connectAddress "\"eNodeB42%x2ppp1\""
param *.eNodeB37.x2App[2].client.connectAddress "\"eNodeB45%x2ppp2\""
param *.eNodeB37.x2App[3].client.connectAddress "\"eNodeB50%x2ppp2\""
param *.eNodeB38.numX2Apps 4
param *.eNodeB38.x2App[0].client.connectAddress "\"eNodeB21%x2ppp2\""
param *.eNodeB38.x2App[1].client.connectAddress "\"eNodeB23%x2ppp2\""
param *.eNodeB38.x2App[2].client.connectAddress "\"eNodeB36%x2ppp2\""
param *.eNodeB38.x2App[3].client.connectAddress "\"eNodeB44%x2ppp2\""
param *.eNodeB39.numX2Apps 4
param *.eNodeB39.x2App[0].client.connectAddress "\"eNodeB26%x2ppp0\""
param *.eNodeB39.x2App[1].client.connectAddress "\"eNodeB24%x2ppp0\""
param *.eNodeB39.x2App[2].client.connectAddress "\"eNodeB59%x2ppp3\""
param *.eNodeB39.x2App[3].client.connectAddress "\"eNodeB61%x2ppp2\""
param *.eNodeB4.numX2Apps 3
param *.eNodeB4.x2App[0].client.connectAddress "\"eNodeB17%x2ppp0\""
param *.eNodeB4.x2App[1].client.connectAddress "\"eNodeB20%x2ppp0\""
param *.eNodeB4.x2App[2].client.connectAddress "\"eNodeB49%x2ppp0\""
param *.eNodeB40.numX2Apps 4
param *.eNodeB40.x2App[0].client.connectAddress "\"eNodeB11%x2ppp1\""
param *.eNodeB40.x2App[1].client.connectAddress "\"eNodeB18%x2ppp1\""
param *.eNodeB40.x2App[2].client.connectAddress "\"eNodeB54%x2ppp2\""
param *.eNodeB40.x2App[3].client.connectAddress "\"eNodeB48%x2ppp2\""
param *.eNodeB41.numX2Apps 4
param *.eNodeB41.x2App[0].client.connectAddress "\"eNodeB1%x2ppp2\""
param *.eNodeB41.x2App[1].client.connectAddress "\"eNodeB14%x2ppp2\""
param *.eNodeB41.x2App[2].client.connectAddress "\"eNodeB50%x2ppp3\""
param *.eNodeB41.x2App[3].client.connectAddress "\"eNodeB66%x2ppp2\""
param *.eNodeB42.numX2Apps 3
param *.eNodeB42.x2App[0].client.connectAddress "\"eNodeB37%x2ppp1\""
param *.eNodeB42.x2App[1].client.connectAddress "\"eNodeB6%x2ppp2\""
param *.eNodeB42.x2App[2].client.connectAddress "\"eNodeB50%x2ppp4\""
param *.eNodeB43.numX2Apps 3
param *.eNodeB43.x2App[0].client.connectAddress "\"eNodeB1%x2ppp3\""
param *.eNodeB43.x2App[1].client.connectAddress "\"eNodeB22%x2ppp3\""
param *.eNodeB43.x2App[2].client.connectAddress "\"eNodeB50%x2ppp5\""
param *.eNodeB44.numX2Apps 3
param *.eNodeB44.x2App[0].client.connectAddress "\"eNodeB23%x2ppp3\""
param *.eNodeB44.x2App[1].client.connectAddress "\"eNodeB36%x2ppp3\""
param *.eNodeB44.x2App[2].client.connectAddress "\"eNodeB38%x2ppp3\""
param *.eNodeB45.numX2Apps 4
param *.eNodeB45.x2App[0].client.connectAddress "\"eNodeB6%x2ppp3\""
param *.eNodeB45.x2App[1].client.connectAddress "\"eNodeB33%x2ppp1\""
param *.eNodeB45.x2App[2].client.connectAddress "\"eNodeB37%x2ppp2\""
param *.eNodeB45.x2App[3].client.connectAddress "\"eNodeB50%x2ppp6\""
param *.eNodeB46.numX2Apps 4
param *.eNodeB46.x2App[0].client.connectAddress "\"eNodeB3%x2ppp3\""
param *.eNodeB46.x2App[1].client.connectAddress "\"eNodeB25%x2ppp1\""
param *.eNodeB46.x2App[2].client.connectAddress "\"eNodeB32%x2ppp3\""
param *.eNodeB46.x2App[3].client.connectAddress "\"eNodeB55%x2ppp2\""
param *.eNodeB47.numX2Apps 4
param *.eNodeB47.x2App[0].client.connectAddress "\"eNodeB7%x2ppp2\""
param *.eNodeB47.x2App[1].client.connectAddress "\"eNodeB8%x2ppp3\""
param *.eNodeB47.x2App[2].client.connectAddress "\"eNodeB10%x2ppp1\""
param *.eNodeB47.x2App[3].client.connectAddress "\"eNodeB13%x2ppp4\""
param *.eNodeB48.numX2Apps 3
param *.eNodeB48.x2App[0].client.connectAddress "\"eNodeB18%x2ppp2\""
param *.eNodeB48.x2App[1].client.connectAddress "\"eNodeB19%x2ppp2\""
param *.eNodeB48.x2App[2].client.connectAddress "\"eNodeB40%x2ppp2\""
param *.eNodeB49.numX2Apps 4
param *.eNodeB49.x2App[0].client.connectAddress "\"eNodeB4%x2ppp2\""
param *.eNodeB49.x2App[1].client.connectAddress "\"eNodeB17%x2ppp2\""
param *.eNodeB49.x2App[2].client.connectAddress "\"eNodeB20%x2ppp2\""
param *.eNodeB49.x2App[3].client.connectAddress "\"eNodeB56%x2ppp1\""
param *.eNodeB5.numX2Apps 3
param *.eNodeB5.x2App[0].client.connectAddress "\"eNodeB2%x2ppp0\""
param *.eNodeB5.x2App[1].client.connectAddress "\"eNodeB25%x2ppp0\""
param *.eNodeB5.x2App[2].client.connectAddress "\"eNodeB34%x2ppp0\""
param *.eNodeB50.numX2Apps 7
param *.eNodeB50.x2App[0].client.connectAddress "\"eNodeB1%x2ppp4\""
param *.eNodeB50.x2App[1].client.connectAddress "\"eNodeB6%x2ppp4\""
param *.eNodeB50.x2App[2].client.connectAddress "\"eNodeB41%x2ppp2\""
param *.eNodeB50.x2App[3].client.connectAddress "\"eNodeB42%x2ppp2\""
param *.eNodeB50.x2App[4].client.connectAddress "\"eNodeB43%x2ppp2\""
param *.eNodeB50.x2App[5].client.connectAddress "\"eNodeB45%x2ppp3\""
param *.eNodeB50.x2App[6].client.connectAddress "\"eNodeB37%x2ppp3\""
param *.eNodeB51.numX2Apps 4
param *.eNodeB51.x2App[0].client.connectAddress "\"eNodeB29%x2ppp0\""
param *.eNodeB51.x2App[1].client.connectAddress "\"eNodeB33%x2ppp2\""
param *.eNodeB51.x2App[2].client.connectAddress "\"eNodeB52%x2ppp2\""
param *.eNodeB51.x2App[3].client.connectAddress "\"eNodeB56%x2ppp2\""
param *.eNodeB52.numX2Apps 4
param *.eNodeB52.x2App[0].client.connectAddress "\"eNodeB25%x2ppp2\""
param *.eNodeB52.x2App[1].client.connectAddress "\"eNodeB29%x2ppp1\""
param *.eNodeB52.x2App[2].client.connectAddress "\"eNodeB51%x2ppp2\""
param *.eNodeB52.x2App[3].client.connectAddress "\"eNodeB53%x2ppp2\""
param *.eNodeB53.numX2Apps 3
param *.eNodeB53.x2App[0].client.connectAddress "\"eNodeB29%x2ppp2\""
param *.eNodeB53.x2App[1].client.connectAddress "\"eNodeB34%x2ppp3\""
param *.eNodeB53.x2App[2].client.connectAddress "\"eNodeB52%x2ppp3\""
param *.eNodeB54.numX2Apps 3
param *.eNodeB54.x2App[0].client.connectAddress "\"eNodeB11%x2ppp2\""
param *.eNodeB54.x2App[1].client.connectAddress "\"eNodeB22%x2ppp4\""
param *.eNodeB54.x2App[2].client.connectAddress "\"eNodeB40%x2ppp3\""
param *.eNodeB55.numX2Apps 3
param *.eNodeB55.x2App[0].client.connectAddress "\"eNodeB46%x2ppp3\""
param *.eNodeB55.x2App[1].client.connectAddress "\"eNodeB3%x2ppp4\""
param *.eNodeB55.x2App[2].client.connectAddress "\"eNodeB20%x2ppp3\""
param *.eNodeB56.numX2Apps 3
param *.eNodeB56.x2App[0].client.connectAddress "\"eNodeB17%x2ppp3\""
param *.eNodeB56.x2App[1].client.connectAddress "\"eNodeB49%x2ppp3\""
param *.eNodeB56.x2App[2].client.connectAddress "\"eNodeB51%x2ppp3\""
param *.eNodeB57.numX2Apps 3
param *.eNodeB57.x2App[0].client.connectAddress "\"eNodeB10%x2ppp2\""
param *.eNodeB57.x2App[1].client.connectAddress "\"eNodeB13%x2ppp5\""
param *.eNodeB57.x2App[2].client.connectAddress "\"eNodeB63%x2ppp4\""
param *.eNodeB58.numX2Apps 3
param *.eNodeB58.x2App[0].client.connectAddress "\"eNodeB9%x2ppp2\""
param *.eNodeB58.x2App[1].client.connectAddress "\"eNodeB27%x2ppp2\""
param *.eNodeB58.x2App[2].client.connectAddress "\"eNodeB66%x2ppp3\""
param *.eNodeB59.numX2Apps 7
param *.eNodeB59.x2App[0].client.connectAddress "\"eNodeB16%x2ppp1\""
param *.eNodeB59.x2App[1].client.connectAddress "\"eNodeB24%x2ppp1\""
param *.eNodeB59.x2App[2].client.connectAddress "\"eNodeB26%x2ppp1\""
param *.eNodeB59.x2App[3].client.connectAddress "\"eNodeB39%x2ppp2\""
param *.eNodeB59.x2App[4].client.connectAddress "\"eNodeB60%x2ppp3\""
param *.eNodeB59.x2App[5].client.connectAddress "\"eNodeB65%x2ppp2\""
param *.eNodeB59.x2App[6].client.connectAddress "\"eNodeB61%x2ppp3\""
param *.eNodeB6.numX2Apps 5
param *.eNodeB6.x2App[0].client.connectAddress "\"eNodeB37%x2ppp0\""
param *.eNodeB6.x2App[1].client.connectAddress "\"eNodeB45%x2ppp0\""
param *.eNodeB6.x2App[2].client.connectAddress "\"eNodeB50%x2ppp1\""
param *.eNodeB6.x2App[3].client.connectAddress "\"eNodeB33%x2ppp0\""
param *.eNodeB6.x2App[4].client.connectAddress "\"eNodeB42%x2ppp0\""
param *.eNodeB60.numX2Apps 5
param *.eNodeB60.x2App[0].client.connectAddress "\"eNodeB15%x2ppp2\""
param *.eNodeB60.x2App[1].client.connectAddress "\"eNodeB24%x2ppp2\""
param *.eNodeB60.x2App[2].client.connectAddress "\"eNodeB28%x2ppp1\""
param *.eNodeB60.x2App[3].client.connectAddress "\"eNodeB59%x2ppp4\""
param *.eNodeB60.x2App[4].client.connectAddress "\"eNodeB65%x2ppp3\""
param *.eNodeB61.numX2Apps 4
param *.eNodeB61.x2App[0].client.connectAddress "\"eNodeB16%x2ppp2\""
param *.eNodeB61.x2App[1].client.connectAddress "\"eNodeB26%x2ppp2\""
param *.eNodeB61.x2App[2].client.connectAddress "\"eNodeB39%x2ppp3\""
param *.eNodeB61.x2App[3].client.connectAddress "\"eNodeB59%x2ppp5\""
param *.eNodeB62.numX2Apps 3
param *.eNodeB62.x2App[0].client.connectAddress "\"eNodeB3%x2ppp5\""
param *.eNodeB62.x2App[1].client.connectAddress "\"eNodeB12%x2ppp2\""
param *.eNodeB62.x2App[2].client.connectAddress "\"eNodeB30%x2ppp3\""
param *.eNodeB63.numX2Apps 5
param *.eNodeB63.x2App[0].client.connectAddress "\"eNodeB10%x2ppp3\""
param *.eNodeB63.x2App[1].client.connectAddress "\"eNodeB13%x2ppp6\""
param *.eNodeB63.x2App[2].client.connectAddress "\"eNodeB31%x2ppp3\""
param *.eNodeB63.x2App[3].client.connectAddress "\"eNodeB35%x2ppp3\""
param *.eNodeB63.x2App[4].client.connectAddress "\"eNodeB57%x2ppp2\""
param *.eNodeB64.numX2Apps 3
param *.eNodeB64.x2App[0].client.connectAddress "\"eNodeB15%x2ppp3\""
param *.eNodeB64.x2App[1].client.connectAddress "\"eNodeB28%x2ppp2\""
param *.eNodeB64.x2App[2].client.connectAddress "\"eNodeB10%x2ppp4\""
param *.eNodeB65.numX2Apps 4
param *.eNodeB65.x2App[0].client.connectAddress "\"eNodeB24%x2ppp3\""
param *.eNodeB65.x2App[1].client.connectAddress "\"eNodeB59%x2ppp6\""
param *.eNodeB65.x2App[2].client.connectAddress "\"eNodeB60%x2ppp4\""
param *.eNodeB65.x2App[3].client.connectAddress "\"eNodeB28%x2ppp3\""
param *.eNodeB66.numX2Apps 4
param *.eNodeB66.x2App[0].client.connectAddress "\"eNodeB14%x2ppp3\""
param *.eNodeB66.x2App[1].client.connectAddress "\"eNodeB58%x2ppp2\""
param *.eNodeB66.x2App[2].client.connectAddress "\"eNodeB22%x2ppp5\""
param *.eNodeB66.x2App[3].client.connectAddress "\"eNodeB41%x2ppp3\""
param *.eNodeB7.numX2Apps 3
param *.eNodeB7.x2App[0].client.connectAddress "\"eNodeB2%x2ppp1\""
param *.eNodeB7.x2App[1].client.connectAddress "\"eNodeB8%x2ppp0\""
param *.eNodeB7.x2App[2].client.connectAddress "\"eNodeB47%x2ppp0\""
param *.eNodeB8.numX2Apps 4
param *.eNodeB8.x2App[0].client.connectAddress "\"eNodeB7%x2ppp1\""
param *.eNodeB8.x2App[1].client.connectAddress "\"eNodeB13%x2ppp0\""
param *.eNodeB8.x2App[2].client.connectAddress "\"eNodeB31%x2ppp0\""
param *.eNodeB8.x2App[3].client.connectAddress "\"eNodeB47%x2ppp1\""
param *.eNodeB9.numX2Apps 3
param *.eNodeB9.x2App[0].client.connectAddress "\"eNodeB27%x2ppp0\""
param *.eNodeB9.x2App[1].client.connectAddress "\"eNodeB34%x2ppp1\""
param *.eNodeB9.x2App[2].client.connectAddress "\"eNodeB58%x2ppp0\""
param *.manager.autoShutdown true
param *.manager.host "\"localhost\""
param *.manager.launchConfig "xmldoc(\"erlangen.launchd.xml\")"
param *.manager.port 9999
param *.manager.updateInterval 1s
param *.obstacles.debug false
param *.obstacles.obstacles "xmldoc(\"config.xml\", \"//AnalogueModel[@type='SimpleObstacleShadowing']/obstacles\")"
param *.playgroundSizeX 2600m
param *.playgroundSizeY 2600m
param *.playgroundSizeZ 50m
param *.veinsManager.launchConfig "xmldoc(\"erlangen.launchd.xml\")"
param *.veinsManager.moduleDisplayString "\"\""
param *.veinsManager.moduleName "\"car\""
param *.veinsManager.moduleType "\"lte.corenetwork.nodes.cars.Car\""
param *.veinsManager.updateInterval 0.1s

scalar _runattrs_ 	numUEs 	10
scalar ErlangenLTE.eNodeB1.x2App[0].client 	ums 	1452
scalar ErlangenLTE.eNodeB1.x2App[1].client 	ums 	1452
scalar ErlangenLTE.eNodeB1.x2App[2].client 	ums 	1452
scalar ErlangenLTE.eNodeB1.x2App[3].client 	ums 	1452
scalar ErlangenLTE.eNodeB1.x2App[4].client 	ums 	1452
scalar ErlangenLTE.eNodeB2.x2App[0].client 	ums 	1452
scalar ErlangenLTE.eNodeB2.x2App[1].client 	ums 	1452
scalar ErlangenLTE.eNodeB2.x2App[2].client 	ums 	1452
scalar ErlangenLTE.eNodeB3.x2App[0].client 	ums 	1452
scalar ErlangenLTE.eNodeB3.x2App[1].client 	ums 	1452
scalar ErlangenLTE.eNodeB3.x2App[2].client 	ums 	1452
scalar ErlangenLTE.eNodeB3.x2App[3].client 	ums 	1452
scalar ErlangenLTE.eNodeB3.x2App[4].client 	ums 	1452
scalar ErlangenLTE.eNodeB3.x2App[5].client 	ums 	1452
scalar ErlangenLTE.eNodeB4.x2App[0].client 	ums 	1452
scalar ErlangenLTE.eNodeB4.x2App[1].client 	ums 	1452
scalar ErlangenLTE.eNodeB4.x2App[2].client 	ums 	1452
scalar ErlangenLTE.eNodeB5.x2App[0].client 	ums 	1452
scalar ErlangenLTE.eNodeB5.x2App[1].client 	ums 	1452
scalar ErlangenLTE.eNodeB5.x2App[2].client 	ums 	1452
scalar ErlangenLTE.eNodeB6.x2App[0].client 	ums 	1452
scalar ErlangenLTE.eNodeB6.x2App[1].client 	ums 	1452
scalar ErlangenLTE.eNodeB6.x2App[2].client 	ums 	1452
scalar ErlangenLTE.eNodeB6.x2App[3].client 	ums 	1452
scalar ErlangenLTE.eNodeB6.x2App[4].client 	ums 	1452
scalar ErlangenLTE.eNodeB7.x2App[0].client 	ums 	1452
scalar ErlangenLTE.eNodeB7.x2App[1].client 	ums 	1452
scalar ErlangenLTE.eNodeB7.x2App[2].client 	ums 	1452
scalar ErlangenLTE.eNodeB8.x2App[0].client 	ums 	1452
scalar ErlangenLTE.eNodeB8.x2App[1].client 	ums 	1452
scalar ErlangenLTE.eNodeB8.x2App[2].client 	ums 	1452
scalar ErlangenLTE.eNodeB8.x2App[3].client 	ums 	1452
scalar ErlangenLTE.eNodeB9.x2App[0].client 	ums 	1452
scalar ErlangenLTE.eNodeB9.x2App[1].client 	ums 	1452
scalar ErlangenLTE.eNodeB9.x2App[2].client 	ums 	1452
scalar ErlangenLTE.eNodeB10.x2App[0].client 	ums 	1452
scalar ErlangenLTE.eNodeB10.x2App[1].client 	ums 	1452
scalar ErlangenLTE.eNodeB10.x2App[2].client 	ums 	1452
scalar ErlangenLTE.eNodeB10.x2App[3].client 	ums 	1452
scalar ErlangenLTE.eNodeB10.x2App[4].client 	ums 	1452
scalar ErlangenLTE.eNodeB11.x2App[0].client 	ums 	1452
scalar ErlangenLTE.eNodeB11.x2App[1].client 	ums 	1452
scalar ErlangenLTE.eNodeB11.x2App[2].client 	ums 	1452
scalar ErlangenLTE.eNodeB12.x2App[0].client 	ums 	1452
scalar ErlangenLTE.eNodeB12.x2App[1].client 	ums 	1452
scalar ErlangenLTE.eNodeB12.x2App[2].client 	ums 	1452
scalar ErlangenLTE.eNodeB13.x2App[0].client 	ums 	1452
scalar ErlangenLTE.eNodeB13.x2App[1].client 	ums 	1452
scalar ErlangenLTE.eNodeB13.x2App[2].client 	ums 	1452
scalar ErlangenLTE.eNodeB13.x2App[3].client 	ums 	1452
scalar ErlangenLTE.eNodeB13.x2App[4].client 	ums 	1452
scalar ErlangenLTE.eNodeB13.x2App[5].client 	ums 	1452
scalar ErlangenLTE.eNodeB13.x2App[6].client 	ums 	1452
scalar ErlangenLTE.eNodeB14.x2App[0].client 	ums 	1452
scalar ErlangenLTE.eNodeB14.x2App[1].client 	ums 	1452
scalar ErlangenLTE.eNodeB14.x2App[2].client 	ums 	1452
scalar ErlangenLTE.eNodeB14.x2App[3].client 	ums 	1452
scalar ErlangenLTE.eNodeB15.x2App[0].client 	ums 	1452
scalar ErlangenLTE.eNodeB15.x2App[1].client 	ums 	1452
scalar ErlangenLTE.eNodeB15.x2App[2].client 	ums 	1452
scalar ErlangenLTE.eNodeB15.x2App[3].client 	ums 	1452
scalar ErlangenLTE.eNodeB16.x2App[0].client 	ums 	1452
scalar ErlangenLTE.eNodeB16.x2App[1].client 	ums 	1452
scalar ErlangenLTE.eNodeB16.x2App[2].client 	ums 	1452
scalar ErlangenLTE.eNodeB17.x2App[0].client 	ums 	1452
scalar ErlangenLTE.eNodeB17.x2App[1].client 	ums 	1452
scalar ErlangenLTE.eNodeB17.x2App[2].client 	ums 	1452
scalar ErlangenLTE.eNodeB17.x2App[3].client 	ums 	1452
scalar ErlangenLTE.eNodeB18.x2App[0].client 	ums 	1452
scalar ErlangenLTE.eNodeB18.x2App[1].client 	ums 	1452
scalar ErlangenLTE.eNodeB18.x2App[2].client 	ums 	1452
scalar ErlangenLTE.eNodeB19.x2App[0].client 	ums 	1452
scalar ErlangenLTE.eNodeB19.x2App[1].client 	ums 	1452
scalar ErlangenLTE.eNodeB19.x2App[2].client 	ums 	1452
scalar ErlangenLTE.eNodeB20.x2App[0].client 	ums 	1452
scalar ErlangenLTE.eNodeB20.x2App[1].client 	ums 	1452
scalar ErlangenLTE.eNodeB20.x2App[2].client 	ums 	1452
scalar ErlangenLTE.eNodeB20.x2App[3].client 	ums 	1452
scalar ErlangenLTE.eNodeB21.x2App[0].client 	ums 	1452
scalar ErlangenLTE.eNodeB21.x2App[1].client 	ums 	1452
scalar ErlangenLTE.eNodeB21.x2App[2].client 	ums 	1452
scalar ErlangenLTE.eNodeB22.x2App[0].client 	ums 	1452
scalar ErlangenLTE.eNodeB22.x2App[1].client 	ums 	1452
scalar ErlangenLTE.eNodeB22.x2App[2].client 	ums 	1452
scalar ErlangenLTE.eNodeB22.x2App[3].client 	ums 	1452
scalar ErlangenLTE.eNodeB22.x2App[4].client 	ums 	1452
scalar ErlangenLTE.eNodeB22.x2App[5].client 	ums 	1452
scalar ErlangenLTE.eNodeB23.x2App[0].client 	ums 	1452
scalar ErlangenLTE.eNodeB23.x2App[1].client 	ums 	1452
scalar ErlangenLTE.eNodeB23.x2App[2].client 	ums 	1452
scalar ErlangenLTE.eNodeB23.x2App[3].client 	ums 	1452
scalar ErlangenLTE.eNodeB24.x2App[0].client 	ums 	1452
scalar ErlangenLTE.eNodeB24.x2App[1].client 	ums 	1452
scalar ErlangenLTE.eNodeB24.x2App[2].client 	ums 	1452
scalar ErlangenLTE.eNodeB24.x2App[3].client 	ums 	1452
scalar ErlangenLTE.eNodeB25.x2App[0].client 	ums 	1452
scalar ErlangenLTE.eNodeB25.x2App[1].client 	ums 	1452
scalar ErlangenLTE.eNodeB25.x2App[2].client 	ums 	1452
scalar ErlangenLTE.eNodeB26.x2App[0].client 	ums 	1452
scalar ErlangenLTE.eNodeB26.x2App[1].client 	ums 	1452
scalar ErlangenLTE.eNodeB26.x2App[2].client 	ums 	1452
scalar ErlangenLTE.eNodeB27.x2App[0].client 	ums 	1452
scalar ErlangenLTE.eNodeB27.x2App[1].client 	ums 	1452
scalar ErlangenLTE.eNodeB27.x2App[2].client 	ums 	1452
scalar ErlangenLTE.eNodeB28.x2App[0].client 	ums 	1452
scalar ErlangenLTE.eNodeB28.x2App[1].client 	ums 	1452
scalar ErlangenLTE.eNodeB28.x2App[2].client 	ums 	1452
scalar ErlangenLTE.eNodeB28.x2App[3].client 	ums 	1452
scalar ErlangenLTE.eNodeB29.x2App[0].client 	ums 	1452
scalar ErlangenLTE.eNodeB29.x2App[1].client 	ums 	1452
scalar ErlangenLTE.eNodeB29.x2App[2].client 	ums 	1452
scalar ErlangenLTE.eNodeB30.x2App[0].client 	ums 	1452
scalar ErlangenLTE.eNodeB30.x2App[1].client 	ums 	1452
scalar ErlangenLTE.eNodeB30.x2App[2].client 	ums 	1452
scalar ErlangenLTE.eNodeB30.x2App[3].client 	ums 	1452
scalar ErlangenLTE.eNodeB31.x2App[0].client 	ums 	1452
scalar ErlangenLTE.eNodeB31.x2App[1].client 	ums 	1452
scalar ErlangenLTE.eNodeB31.x2App[2].client 	ums 	1452
scalar ErlangenLTE.eNodeB31.x2App[3].client 	ums 	1452
scalar ErlangenLTE.eNodeB32.x2App[0].client 	ums 	1452
scalar ErlangenLTE.eNodeB32.x2App[1].client 	ums 	1452
scalar ErlangenLTE.eNodeB32.x2App[2].client 	ums 	1452
scalar ErlangenLTE.eNodeB32.x2App[3].client 	ums 	1452
scalar ErlangenLTE.eNodeB33.x2App[0].client 	ums 	1452
scalar ErlangenLTE.eNodeB33.x2App[1].client 	ums 	1452
scalar ErlangenLTE.eNodeB33.x2App[2].client 	ums 	1452
scalar ErlangenLTE.eNodeB34.x2App[0].client 	ums 	1452
scalar ErlangenLTE.eNodeB34.x2App[1].client 	ums 	1452
scalar ErlangenLTE.eNodeB34.x2App[2].client 	ums 	1452
scalar ErlangenLTE.eNodeB34.x2App[3].client 	ums 	1452
scalar ErlangenLTE.eNodeB35.x2App[0].client 	ums 	1452
scalar ErlangenLTE.eNodeB35.x2App[1].client 	ums 	1452
scalar ErlangenLTE.eNodeB35.x2App[2].client 	ums 	1452
scalar ErlangenLTE.eNodeB35.x2App[3].client 	ums 	1452
scalar ErlangenLTE.eNodeB36.x2App[0].client 	ums 	1452
scalar ErlangenLTE.eNodeB36.x2App[1].client 	ums 	1452
scalar ErlangenLTE.eNodeB36.x2App[2].client 	ums 	1452
scalar ErlangenLTE.eNodeB36.x2App[3].client 	ums 	1452
scalar ErlangenLTE.eNodeB37.x2App[0].client 	ums 	1452
scalar ErlangenLTE.eNodeB37.x2App[1].client 	ums 	1452
scalar ErlangenLTE.eNodeB37.x2App[2].client 	ums 	1452
scalar ErlangenLTE.eNodeB37.x2App[3].client 	ums 	1452
scalar ErlangenLTE.eNodeB38.x2App[0].client 	ums 	1452
scalar ErlangenLTE.eNodeB38.x2App[1].client 	ums 	1452
scalar ErlangenLTE.eNodeB38.x2App[2].client 	ums 	1452
scalar ErlangenLTE.eNodeB38.x2App[3].client 	ums 	1452
scalar ErlangenLTE.eNodeB39.x2App[0].client 	ums 	1452
scalar ErlangenLTE.eNodeB39.x2App[1].client 	ums 	1452
scalar ErlangenLTE.eNodeB39.x2App[2].client 	ums 	1452
scalar ErlangenLTE.eNodeB39.x2App[3].client 	ums 	1452
scalar ErlangenLTE.eNodeB40.x2App[0].client 	ums 	1452
scalar ErlangenLTE.eNodeB40.x2App[1].client 	ums 	1452
scalar ErlangenLTE.eNodeB40.x2App[2].client 	ums 	1452
scalar ErlangenLTE.eNodeB40.x2App[3].client 	ums 	1452
scalar ErlangenLTE.eNodeB41.x2App[0].client 	ums 	1452
scalar ErlangenLTE.eNodeB41.x2App[1].client 	ums 	1452
scalar ErlangenLTE.eNodeB41.x2App[2].client 	ums 	1452
scalar ErlangenLTE.eNodeB41.x2App[3].client 	ums 	1452
scalar ErlangenLTE.eNodeB42.x2App[0].client 	ums 	1452
scalar ErlangenLTE.eNodeB42.x2App[1].client 	ums 	1452
scalar ErlangenLTE.eNodeB42.x2App[2].client 	ums 	1452
scalar ErlangenLTE.eNodeB43.x2App[0].client 	ums 	1452
scalar ErlangenLTE.eNodeB43.x2App[1].client 	ums 	1452
scalar ErlangenLTE.eNodeB43.x2App[2].client 	ums 	1452
scalar ErlangenLTE.eNodeB44.x2App[0].client 	ums 	1452
scalar ErlangenLTE.eNodeB44.x2App[1].client 	ums 	1452
scalar ErlangenLTE.eNodeB44.x2App[2].client 	ums 	1452
scalar ErlangenLTE.eNodeB45.x2App[0].client 	ums 	1452
scalar ErlangenLTE.eNodeB45.x2App[1].client 	ums 	1452
scalar ErlangenLTE.eNodeB45.x2App[2].client 	ums 	1452
scalar ErlangenLTE.eNodeB45.x2App[3].client 	ums 	1452
scalar ErlangenLTE.eNodeB46.x2App[0].client 	ums 	1452
scalar ErlangenLTE.eNodeB46.x2App[1].client 	ums 	1452
scalar ErlangenLTE.eNodeB46.x2App[2].client 	ums 	1452
scalar ErlangenLTE.eNodeB46.x2App[3].client 	ums 	1452
scalar ErlangenLTE.eNodeB47.x2App[0].client 	ums 	1452
scalar ErlangenLTE.eNodeB47.x2App[1].client 	ums 	1452
scalar ErlangenLTE.eNodeB47.x2App[2].client 	ums 	1452
scalar ErlangenLTE.eNodeB47.x2App[3].client 	ums 	1452
scalar ErlangenLTE.eNodeB48.x2App[0].client 	ums 	1452
scalar ErlangenLTE.eNodeB48.x2App[1].client 	ums 	1452
scalar ErlangenLTE.eNodeB48.x2App[2].client 	ums 	1452
scalar ErlangenLTE.eNodeB49.x2App[0].client 	ums 	1452
scalar ErlangenLTE.eNodeB49.x2App[1].client 	ums 	1452
scalar ErlangenLTE.eNodeB49.x2App[2].client 	ums 	1452
scalar ErlangenLTE.eNodeB49.x2App[3].client 	ums 	1452
scalar ErlangenLTE.eNodeB50.x2App[0].client 	ums 	1452
scalar ErlangenLTE.eNodeB50.x2App[1].client 	ums 	1452
scalar ErlangenLTE.eNodeB50.x2App[2].client 	ums 	1452
scalar ErlangenLTE.eNodeB50.x2App[3].client 	ums 	1452
scalar ErlangenLTE.eNodeB50.x2App[4].client 	ums 	1452
scalar ErlangenLTE.eNodeB50.x2App[5].client 	ums 	1452
scalar ErlangenLTE.eNodeB50.x2App[6].client 	ums 	1452
scalar ErlangenLTE.eNodeB51.x2App[0].client 	ums 	1452
scalar ErlangenLTE.eNodeB51.x2App[1].client 	ums 	1452
scalar ErlangenLTE.eNodeB51.x2App[2].client 	ums 	1452
scalar ErlangenLTE.eNodeB51.x2App[3].client 	ums 	1452
scalar ErlangenLTE.eNodeB52.x2App[0].client 	ums 	1452
scalar ErlangenLTE.eNodeB52.x2App[1].client 	ums 	1452
scalar ErlangenLTE.eNodeB52.x2App[2].client 	ums 	1452
scalar ErlangenLTE.eNodeB52.x2App[3].client 	ums 	1452
scalar ErlangenLTE.eNodeB53.x2App[0].client 	ums 	1452
scalar ErlangenLTE.eNodeB53.x2App[1].client 	ums 	1452
scalar ErlangenLTE.eNodeB53.x2App[2].client 	ums 	1452
scalar ErlangenLTE.eNodeB54.x2App[0].client 	ums 	1452
scalar ErlangenLTE.eNodeB54.x2App[1].client 	ums 	1452
scalar ErlangenLTE.eNodeB54.x2App[2].client 	ums 	1452
scalar ErlangenLTE.eNodeB55.x2App[0].client 	ums 	1452
scalar ErlangenLTE.eNodeB55.x2App[1].client 	ums 	1452
scalar ErlangenLTE.eNodeB55.x2App[2].client 	ums 	1452
scalar ErlangenLTE.eNodeB56.x2App[0].client 	ums 	1452
scalar ErlangenLTE.eNodeB56.x2App[1].client 	ums 	1452
scalar ErlangenLTE.eNodeB56.x2App[2].client 	ums 	1452
scalar ErlangenLTE.eNodeB57.x2App[0].client 	ums 	1452
scalar ErlangenLTE.eNodeB57.x2App[1].client 	ums 	1452
scalar ErlangenLTE.eNodeB57.x2App[2].client 	ums 	1452
scalar ErlangenLTE.eNodeB58.x2App[0].client 	ums 	1452
scalar ErlangenLTE.eNodeB58.x2App[1].client 	ums 	1452
scalar ErlangenLTE.eNodeB58.x2App[2].client 	ums 	1452
scalar ErlangenLTE.eNodeB59.x2App[0].client 	ums 	1452
scalar ErlangenLTE.eNodeB59.x2App[1].client 	ums 	1452
scalar ErlangenLTE.eNodeB59.x2App[2].client 	ums 	1452
scalar ErlangenLTE.eNodeB59.x2App[3].client 	ums 	1452
scalar ErlangenLTE.eNodeB59.x2App[4].client 	ums 	1452
scalar ErlangenLTE.eNodeB59.x2App[5].client 	ums 	1452
scalar ErlangenLTE.eNodeB59.x2App[6].client 	ums 	1452
scalar ErlangenLTE.eNodeB60.x2App[0].client 	ums 	1452
scalar ErlangenLTE.eNodeB60.x2App[1].client 	ums 	1452
scalar ErlangenLTE.eNodeB60.x2App[2].client 	ums 	1452
scalar ErlangenLTE.eNodeB60.x2App[3].client 	ums 	1452
scalar ErlangenLTE.eNodeB60.x2App[4].client 	ums 	1452
scalar ErlangenLTE.eNodeB61.x2App[0].client 	ums 	1452
scalar ErlangenLTE.eNodeB61.x2App[1].client 	ums 	1452
scalar ErlangenLTE.eNodeB61.x2App[2].client 	ums 	1452
scalar ErlangenLTE.eNodeB61.x2App[3].client 	ums 	1452
scalar ErlangenLTE.eNodeB62.x2App[0].client 	ums 	1452
scalar ErlangenLTE.eNodeB62.x2App[1].client 	ums 	1452
scalar ErlangenLTE.eNodeB62.x2App[2].client 	ums 	1452
scalar ErlangenLTE.eNodeB63.x2App[0].client 	ums 	1452
scalar ErlangenLTE.eNodeB63.x2App[1].client 	ums 	1452
scalar ErlangenLTE.eNodeB63.x2App[2].client 	ums 	1452
scalar ErlangenLTE.eNodeB63.x2App[3].client 	ums 	1452
scalar ErlangenLTE.eNodeB63.x2App[4].client 	ums 	1452
scalar ErlangenLTE.eNodeB64.x2App[0].client 	ums 	1452
scalar ErlangenLTE.eNodeB64.x2App[1].client 	ums 	1452
scalar ErlangenLTE.eNodeB64.x2App[2].client 	ums 	1452
scalar ErlangenLTE.eNodeB65.x2App[0].client 	ums 	1452
scalar ErlangenLTE.eNodeB65.x2App[1].client 	ums 	1452
scalar ErlangenLTE.eNodeB65.x2App[2].client 	ums 	1452
scalar ErlangenLTE.eNodeB65.x2App[3].client 	ums 	1452
scalar ErlangenLTE.eNodeB66.x2App[0].client 	ums 	1452
scalar ErlangenLTE.eNodeB66.x2App[1].client 	ums 	1452
scalar ErlangenLTE.eNodeB66.x2App[2].client 	ums 	1452
scalar ErlangenLTE.eNodeB66.x2App[3].client 	ums 	1452
scalar ErlangenLTE.radioMedium.propagation 	"Arrival computation count" 	0
scalar ErlangenLTE.radioMedium 	"transmission count" 	0
scalar ErlangenLTE.radioMedium 	"radio frame send count" 	0
scalar ErlangenLTE.radioMedium 	"reception computation count" 	0
scalar ErlangenLTE.radioMedium 	"interference computation count" 	0
scalar ErlangenLTE.radioMedium 	"reception decision computation count" 	0
scalar ErlangenLTE.radioMedium 	"listening decision computation count" 	0
scalar ErlangenLTE.radioMedium 	"reception cache hit" 	-nan
attr unit  %
scalar ErlangenLTE.radioMedium 	"interference cache hit" 	-nan
attr unit  %
scalar ErlangenLTE.radioMedium 	"noise cache hit" 	-nan
attr unit  %
scalar ErlangenLTE.radioMedium 	"snir cache hit" 	-nan
attr unit  %
scalar ErlangenLTE.radioMedium 	"reception decision cache hit" 	-nan
attr unit  %
scalar ErlangenLTE.radioMedium 	"reception result cache hit" 	-nan
attr unit  %
scalar ErlangenLTE.server.networkLayer.arp 	failedARPResolution:count 	0
attr title  "ARP failed resolutions, count"
scalar ErlangenLTE.server.networkLayer.arp 	completedARPResolution:count 	0
attr title  "ARP completed resolutions, count"
scalar ErlangenLTE.server.networkLayer.arp 	initiatedARPResolution:count 	0
attr title  "ARP initiated resolutions, count"
scalar ErlangenLTE.server.networkLayer.arp 	sentReply:count 	0
attr title  "ARP replies sent, count"
scalar ErlangenLTE.server.networkLayer.arp 	sentReq:count 	0
attr title  "ARP request sent, count"
scalar ErlangenLTE.server.lo0.lo 	droppedPkBitError:count 	0
attr interpolationmode  none
attr source  dropPkBitError
attr title  "packets dropped/bit error, count"
scalar ErlangenLTE.server.lo0.lo 	droppedPkBitError:sum(packetBytes) 	0
attr interpolationmode  none
attr source  dropPkBitError
attr title  "packets dropped/bit error, sum(packetBytes)"
scalar ErlangenLTE.server.lo0.lo 	rcvdPkFromHL:count 	0
attr interpolationmode  none
attr source  packetReceivedFromUpper
attr title  "packets received from higher layer, count"
scalar ErlangenLTE.server.lo0.lo 	rcvdPkFromHL:sum(packetBytes) 	0
attr interpolationmode  none
attr source  packetReceivedFromUpper
attr title  "packets received from higher layer, sum(packetBytes)"
scalar ErlangenLTE.server.lo0.lo 	passedUpPk:count 	0
attr interpolationmode  none
attr source  packetSentToUpper
attr title  "packets passed to higher layer, count"
scalar ErlangenLTE.server.lo0.lo 	passedUpPk:sum(packetBytes) 	0
attr interpolationmode  none
attr source  packetSentToUpper
attr title  "packets passed to higher layer, sum(packetBytes)"
statistic ErlangenLTE.server.ppp[0].queue 	queueingTime:histogram
field count 0
field mean -nan
field stddev -nan
field sum 0
field sqrsum 0
field min -nan
field max -nan
attr interpolationmode  none
attr title  "queueing time, histogram"
bin	-INF	0
bin	-0.5	0
bin	-0.46666666666667	0
bin	-0.43333333333333	0
bin	-0.4	0
bin	-0.36666666666667	0
bin	-0.33333333333333	0
bin	-0.3	0
bin	-0.26666666666667	0
bin	-0.23333333333333	0
bin	-0.2	0
bin	-0.16666666666667	0
bin	-0.13333333333333	0
bin	-0.1	0
bin	-0.066666666666667	0
bin	-0.033333333333333	0
bin	0	0
bin	0.033333333333333	0
bin	0.066666666666667	0
bin	0.1	0
bin	0.13333333333333	0
bin	0.16666666666667	0
bin	0.2	0
bin	0.23333333333333	0
bin	0.26666666666667	0
bin	0.3	0
bin	0.33333333333333	0
bin	0.36666666666667	0
bin	0.4	0
bin	0.43333333333333	0
bin	0.46666666666667	0
bin	0.5	0
scalar ErlangenLTE.server.ppp[0].queue 	dropPk:count 	0
attr interpolationmode  none
attr source  dropPkByQueue
attr title  "dropped packets, count"
scalar ErlangenLTE.server.ppp[0].queue 	dropPk:sum(packetBytes) 	0
attr interpolationmode  none
attr source  dropPkByQueue
attr title  "dropped packets, sum(packetBytes)"
scalar ErlangenLTE.server.ppp[0].queue 	queueLength:max 	0
attr interpolationmode  sample-hold
attr title  "queue length, max"
scalar ErlangenLTE.server.ppp[0].queue 	queueLength:timeavg 	-nan
attr interpolationmode  sample-hold
attr title  "queue length, timeavg"
scalar ErlangenLTE.server.ppp[0].queue 	rcvdPk:count 	0
attr interpolationmode  none
attr title  "received packets, count"
scalar ErlangenLTE.server.ppp[0].queue 	rcvdPk:sum(packetBytes) 	0
attr interpolationmode  none
attr title  "received packets, sum(packetBytes)"
scalar ErlangenLTE.server.ppp[0].ppp 	txState:timeavg 	-nan
attr interpolationmode  sample-hold
attr title  "tx state, timeavg"
scalar ErlangenLTE.server.ppp[0].ppp 	droppedPkIfaceDown:count 	0
attr interpolationmode  none
attr source  dropPkIfaceDown
attr title  "packets dropped/interface down, count"
scalar ErlangenLTE.server.ppp[0].ppp 	droppedPkIfaceDown:sum(packetBytes) 	0
attr interpolationmode  none
attr source  dropPkIfaceDown
attr title  "packets dropped/interface down, sum(packetBytes)"
scalar ErlangenLTE.server.ppp[0].ppp 	droppedPkBitError:count 	0
attr interpolationmode  none
attr source  dropPkBitError
attr title  "packets dropped/bit error, count"
scalar ErlangenLTE.server.ppp[0].ppp 	droppedPkBitError:sum(packetBytes) 	0
attr interpolationmode  none
attr source  dropPkBitError
attr title  "packets dropped/bit error, sum(packetBytes)"
scalar ErlangenLTE.server.ppp[0].ppp 	rxPkOk:count 	0
attr interpolationmode  none
attr source  rxPkOk
attr title  "packets received OK, count"
scalar ErlangenLTE.server.ppp[0].ppp 	rxPkOk:sum(packetBytes) 	0
attr interpolationmode  none
attr source  rxPkOk
attr title  "packets received OK, sum(packetBytes)"
scalar ErlangenLTE.server.ppp[0].ppp 	txPk:count 	0
attr interpolationmode  none
attr source  packetSentToLower
attr title  "packets transmitted, count"
scalar ErlangenLTE.server.ppp[0].ppp 	txPk:sum(packetBytes) 	0
attr interpolationmode  none
attr source  packetSentToLower
attr title  "packets transmitted, sum(packetBytes)"
scalar ErlangenLTE.server.ppp[0].ppp 	rcvdPkFromHL:count 	0
attr interpolationmode  none
attr source  packetReceivedFromUpper
attr title  "packets received from higher layer, count"
scalar ErlangenLTE.server.ppp[0].ppp 	rcvdPkFromHL:sum(packetBytes) 	0
attr interpolationmode  none
attr source  packetReceivedFromUpper
attr title  "packets received from higher layer, sum(packetBytes)"
scalar ErlangenLTE.server.ppp[0].ppp 	passedUpPk:count 	0
attr interpolationmode  none
attr source  packetSentToUpper
attr title  "packets passed to higher layer, count"
scalar ErlangenLTE.server.ppp[0].ppp 	passedUpPk:sum(packetBytes) 	0
attr interpolationmode  none
attr source  packetSentToUpper
attr title  "packets passed to higher layer, sum(packetBytes)"
scalar ErlangenLTE.router.networkLayer.arp 	failedARPResolution:count 	0
attr title  "ARP failed resolutions, count"
scalar ErlangenLTE.router.networkLayer.arp 	completedARPResolution:count 	0
attr title  "ARP completed resolutions, count"
scalar ErlangenLTE.router.networkLayer.arp 	initiatedARPResolution:count 	0
attr title  "ARP initiated resolutions, count"
scalar ErlangenLTE.router.networkLayer.arp 	sentReply:count 	0
attr title  "ARP replies sent, count"
scalar ErlangenLTE.router.networkLayer.arp 	sentReq:count 	0
attr title  "ARP request sent, count"
scalar ErlangenLTE.router.lo0.lo 	droppedPkBitError:count 	0
attr interpolationmode  none
attr source  dropPkBitError
attr title  "packets dropped/bit error, count"
scalar ErlangenLTE.router.lo0.lo 	droppedPkBitError:sum(packetBytes) 	0
attr interpolationmode  none
attr source  dropPkBitError
attr title  "packets dropped/bit error, sum(packetBytes)"
scalar ErlangenLTE.router.lo0.lo 	rcvdPkFromHL:count 	0
attr interpolationmode  none
attr source  packetReceivedFromUpper
attr title  "packets received from higher layer, count"
scalar ErlangenLTE.router.lo0.lo 	rcvdPkFromHL:sum(packetBytes) 	0
attr interpolationmode  none
attr source  packetReceivedFromUpper
attr title  "packets received from higher layer, sum(packetBytes)"
scalar ErlangenLTE.router.lo0.lo 	passedUpPk:count 	0
attr interpolationmode  none
attr source  packetSentToUpper
attr title  "packets passed to higher layer, count"
scalar ErlangenLTE.router.lo0.lo 	passedUpPk:sum(packetBytes) 	0
attr interpolationmode  none
attr source  packetSentToUpper
attr title  "packets passed to higher layer, sum(packetBytes)"
statistic ErlangenLTE.router.ppp[0].queue 	queueingTime:histogram
field count 0
field mean -nan
field stddev -nan
field sum 0
field sqrsum 0
field min -nan
field max -nan
attr interpolationmode  none
attr title  "queueing time, histogram"
bin	-INF	0
bin	-0.5	0
bin	-0.46666666666667	0
bin	-0.43333333333333	0
bin	-0.4	0
bin	-0.36666666666667	0
bin	-0.33333333333333	0
bin	-0.3	0
bin	-0.26666666666667	0
bin	-0.23333333333333	0
bin	-0.2	0
bin	-0.16666666666667	0
bin	-0.13333333333333	0
bin	-0.1	0
bin	-0.066666666666667	0
bin	-0.033333333333333	0
bin	0	0
bin	0.033333333333333	0
bin	0.066666666666667	0
bin	0.1	0
bin	0.13333333333333	0
bin	0.16666666666667	0
bin	0.2	0
bin	0.23333333333333	0
bin	0.26666666666667	0
bin	0.3	0
bin	0.33333333333333	0
bin	0.36666666666667	0
bin	0.4	0
bin	0.43333333333333	0
bin	0.46666666666667	0
bin	0.5	0
scalar ErlangenLTE.router.ppp[0].queue 	dropPk:count 	0
attr interpolationmode  none
attr source  dropPkByQueue
attr title  "dropped packets, count"
scalar ErlangenLTE.router.ppp[0].queue 	dropPk:sum(packetBytes) 	0
attr interpolationmode  none
attr source  dropPkByQueue
attr title  "dropped packets, sum(packetBytes)"
scalar ErlangenLTE.router.ppp[0].queue 	queueLength:max 	0
attr interpolationmode  sample-hold
attr title  "queue length, max"
scalar ErlangenLTE.router.ppp[0].queue 	queueLength:timeavg 	-nan
attr interpolationmode  sample-hold
attr title  "queue length, timeavg"
scalar ErlangenLTE.router.ppp[0].queue 	rcvdPk:count 	0
attr interpolationmode  none
attr title  "received packets, count"
scalar ErlangenLTE.router.ppp[0].queue 	rcvdPk:sum(packetBytes) 	0
attr interpolationmode  none
attr title  "received packets, sum(packetBytes)"
scalar ErlangenLTE.router.ppp[0].ppp 	txState:timeavg 	-nan
attr interpolationmode  sample-hold
attr title  "tx state, timeavg"
scalar ErlangenLTE.router.ppp[0].ppp 	droppedPkIfaceDown:count 	0
attr interpolationmode  none
attr source  dropPkIfaceDown
attr title  "packets dropped/interface down, count"
scalar ErlangenLTE.router.ppp[0].ppp 	droppedPkIfaceDown:sum(packetBytes) 	0
attr interpolationmode  none
attr source  dropPkIfaceDown
attr title  "packets dropped/interface down, sum(packetBytes)"
scalar ErlangenLTE.router.ppp[0].ppp 	droppedPkBitError:count 	0
attr interpolationmode  none
attr source  dropPkBitError
attr title  "packets dropped/bit error, count"
scalar ErlangenLTE.router.ppp[0].ppp 	droppedPkBitError:sum(packetBytes) 	0
attr interpolationmode  none
attr source  dropPkBitError
attr title  "packets dropped/bit error, sum(packetBytes)"
scalar ErlangenLTE.router.ppp[0].ppp 	rxPkOk:count 	0
attr interpolationmode  none
attr source  rxPkOk
attr title  "packets received OK, count"
scalar ErlangenLTE.router.ppp[0].ppp 	rxPkOk:sum(packetBytes) 	0
attr interpolationmode  none
attr source  rxPkOk
attr title  "packets received OK, sum(packetBytes)"
scalar ErlangenLTE.router.ppp[0].ppp 	txPk:count 	0
attr interpolationmode  none
attr source  packetSentToLower
attr title  "packets transmitted, count"
scalar ErlangenLTE.router.ppp[0].ppp 	txPk:sum(packetBytes) 	0
attr interpolationmode  none
attr source  packetSentToLower
attr title  "packets transmitted, sum(packetBytes)"
scalar ErlangenLTE.router.ppp[0].ppp 	rcvdPkFromHL:count 	0
attr interpolationmode  none
attr source  packetReceivedFromUpper
attr title  "packets received from higher layer, count"
scalar ErlangenLTE.router.ppp[0].ppp 	rcvdPkFromHL:sum(packetBytes) 	0
attr interpolationmode  none
attr source  packetReceivedFromUpper
attr title  "packets received from higher layer, sum(packetBytes)"
scalar ErlangenLTE.router.ppp[0].ppp 	passedUpPk:count 	0
attr interpolationmode  none
attr source  packetSentToUpper
attr title  "packets passed to higher layer, count"
scalar ErlangenLTE.router.ppp[0].ppp 	passedUpPk:sum(packetBytes) 	0
attr interpolationmode  none
attr source  packetSentToUpper
attr title  "packets passed to higher layer, sum(packetBytes)"
statistic ErlangenLTE.router.ppp[1].queue 	queueingTime:histogram
field count 0
field mean -nan
field stddev -nan
field sum 0
field sqrsum 0
field min -nan
field max -nan
attr interpolationmode  none
attr title  "queueing time, histogram"
bin	-INF	0
bin	-0.5	0
bin	-0.46666666666667	0
bin	-0.43333333333333	0
bin	-0.4	0
bin	-0.36666666666667	0
bin	-0.33333333333333	0
bin	-0.3	0
bin	-0.26666666666667	0
bin	-0.23333333333333	0
bin	-0.2	0
bin	-0.16666666666667	0
bin	-0.13333333333333	0
bin	-0.1	0
bin	-0.066666666666667	0
bin	-0.033333333333333	0
bin	0	0
bin	0.033333333333333	0
bin	0.066666666666667	0
bin	0.1	0
bin	0.13333333333333	0
bin	0.16666666666667	0
bin	0.2	0
bin	0.23333333333333	0
bin	0.26666666666667	0
bin	0.3	0
bin	0.33333333333333	0
bin	0.36666666666667	0
bin	0.4	0
bin	0.43333333333333	0
bin	0.46666666666667	0
bin	0.5	0
scalar ErlangenLTE.router.ppp[1].queue 	dropPk:count 	0
attr interpolationmode  none
attr source  dropPkByQueue
attr title  "dropped packets, count"
scalar ErlangenLTE.router.ppp[1].queue 	dropPk:sum(packetBytes) 	0
attr interpolationmode  none
attr source  dropPkByQueue
attr title  "dropped packets, sum(packetBytes)"
scalar ErlangenLTE.router.ppp[1].queue 	queueLength:max 	0
attr interpolationmode  sample-hold
attr title  "queue length, max"
scalar ErlangenLTE.router.ppp[1].queue 	queueLength:timeavg 	-nan
attr interpolationmode  sample-hold
attr title  "queue length, timeavg"
scalar ErlangenLTE.router.ppp[1].queue 	rcvdPk:count 	0
attr interpolationmode  none
attr title  "received packets, count"
scalar ErlangenLTE.router.ppp[1].queue 	rcvdPk:sum(packetBytes) 	0
attr interpolationmode  none
attr title  "received packets, sum(packetBytes)"
scalar ErlangenLTE.router.ppp[1].ppp 	txState:timeavg 	-nan
attr interpolationmode  sample-hold
attr title  "tx state, timeavg"
scalar ErlangenLTE.router.ppp[1].ppp 	droppedPkIfaceDown:count 	0
attr interpolationmode  none
attr source  dropPkIfaceDown
attr title  "packets dropped/interface down, count"
scalar ErlangenLTE.router.ppp[1].ppp 	droppedPkIfaceDown:sum(packetBytes) 	0
attr interpolationmode  none
attr source  dropPkIfaceDown
attr title  "packets dropped/interface down, sum(packetBytes)"
scalar ErlangenLTE.router.ppp[1].ppp 	droppedPkBitError:count 	0
attr interpolationmode  none
attr source  dropPkBitError
attr title  "packets dropped/bit error, count"
scalar ErlangenLTE.router.ppp[1].ppp 	droppedPkBitError:sum(packetBytes) 	0
attr interpolationmode  none
attr source  dropPkBitError
attr title  "packets dropped/bit error, sum(packetBytes)"
scalar ErlangenLTE.router.ppp[1].ppp 	rxPkOk:count 	0
attr interpolationmode  none
attr source  rxPkOk
attr title  "packets received OK, count"
scalar ErlangenLTE.router.ppp[1].ppp 	rxPkOk:sum(packetBytes) 	0
attr interpolationmode  none
attr source  rxPkOk
attr title  "packets received OK, sum(packetBytes)"
scalar ErlangenLTE.router.ppp[1].ppp 	txPk:count 	0
attr interpolationmode  none
attr source  packetSentToLower
attr title  "packets transmitted, count"
scalar ErlangenLTE.router.ppp[1].ppp 	txPk:sum(packetBytes) 	0
attr interpolationmode  none
attr source  packetSentToLower
attr title  "packets transmitted, sum(packetBytes)"
scalar ErlangenLTE.router.ppp[1].ppp 	rcvdPkFromHL:count 	0
attr interpolationmode  none
attr source  packetReceivedFromUpper
attr title  "packets received from higher layer, count"
scalar ErlangenLTE.router.ppp[1].ppp 	rcvdPkFromHL:sum(packetBytes) 	0
attr interpolationmode  none
attr source  packetReceivedFromUpper
attr title  "packets received from higher layer, sum(packetBytes)"
scalar ErlangenLTE.router.ppp[1].ppp 	passedUpPk:count 	0
attr interpolationmode  none
attr source  packetSentToUpper
attr title  "packets passed to higher layer, count"
scalar ErlangenLTE.router.ppp[1].ppp 	passedUpPk:sum(packetBytes) 	0
attr interpolationmode  none
attr source  packetSentToUpper
attr title  "packets passed to higher layer, sum(packetBytes)"
scalar ErlangenLTE.pgw.networkLayer.arp 	failedARPResolution:count 	0
attr title  "ARP failed resolutions, count"
scalar ErlangenLTE.pgw.networkLayer.arp 	completedARPResolution:count 	0
attr title  "ARP completed resolutions, count"
scalar ErlangenLTE.pgw.networkLayer.arp 	initiatedARPResolution:count 	0
attr title  "ARP initiated resolutions, count"
scalar ErlangenLTE.pgw.networkLayer.arp 	sentReply:count 	0
attr title  "ARP replies sent, count"
scalar ErlangenLTE.pgw.networkLayer.arp 	sentReq:count 	0
attr title  "ARP request sent, count"
scalar ErlangenLTE.pgw.lo0.lo 	droppedPkBitError:count 	0
attr interpolationmode  none
attr source  dropPkBitError
attr title  "packets dropped/bit error, count"
scalar ErlangenLTE.pgw.lo0.lo 	droppedPkBitError:sum(packetBytes) 	0
attr interpolationmode  none
attr source  dropPkBitError
attr title  "packets dropped/bit error, sum(packetBytes)"
scalar ErlangenLTE.pgw.lo0.lo 	rcvdPkFromHL:count 	0
attr interpolationmode  none
attr source  packetReceivedFromUpper
attr title  "packets received from higher layer, count"
scalar ErlangenLTE.pgw.lo0.lo 	rcvdPkFromHL:sum(packetBytes) 	0
attr interpolationmode  none
attr source  packetReceivedFromUpper
attr title  "packets received from higher layer, sum(packetBytes)"
scalar ErlangenLTE.pgw.lo0.lo 	passedUpPk:count 	0
attr interpolationmode  none
attr source  packetSentToUpper
attr title  "packets passed to higher layer, count"
scalar ErlangenLTE.pgw.lo0.lo 	passedUpPk:sum(packetBytes) 	0
attr interpolationmode  none
attr source  packetSentToUpper
attr title  "packets passed to higher layer, sum(packetBytes)"
statistic ErlangenLTE.pgw.ppp[0].queue 	queueingTime:histogram
field count 0
field mean -nan
field stddev -nan
field sum 0
field sqrsum 0
field min -nan
field max -nan
attr interpolationmode  none
attr title  "queueing time, histogram"
bin	-INF	0
bin	-0.5	0
bin	-0.46666666666667	0
bin	-0.43333333333333	0
bin	-0.4	0
bin	-0.36666666666667	0
bin	-0.33333333333333	0
bin	-0.3	0
bin	-0.26666666666667	0
bin	-0.23333333333333	0
bin	-0.2	0
bin	-0.16666666666667	0
bin	-0.13333333333333	0
bin	-0.1	0
bin	-0.066666666666667	0
bin	-0.033333333333333	0
bin	0	0
bin	0.033333333333333	0
bin	0.066666666666667	0
bin	0.1	0
bin	0.13333333333333	0
bin	0.16666666666667	0
bin	0.2	0
bin	0.23333333333333	0
bin	0.26666666666667	0
bin	0.3	0
bin	0.33333333333333	0
bin	0.36666666666667	0
bin	0.4	0
bin	0.43333333333333	0
bin	0.46666666666667	0
bin	0.5	0
scalar ErlangenLTE.pgw.ppp[0].queue 	dropPk:count 	0
attr interpolationmode  none
attr source  dropPkByQueue
attr title  "dropped packets, count"
scalar ErlangenLTE.pgw.ppp[0].queue 	dropPk:sum(packetBytes) 	0
attr interpolationmode  none
attr source  dropPkByQueue
attr title  "dropped packets, sum(packetBytes)"
scalar ErlangenLTE.pgw.ppp[0].queue 	queueLength:max 	0
attr interpolationmode  sample-hold
attr title  "queue length, max"
scalar ErlangenLTE.pgw.ppp[0].queue 	queueLength:timeavg 	-nan
attr interpolationmode  sample-hold
attr title  "queue length, timeavg"
scalar ErlangenLTE.pgw.ppp[0].queue 	rcvdPk:count 	0
attr interpolationmode  none
attr title  "received packets, count"
scalar ErlangenLTE.pgw.ppp[0].queue 	rcvdPk:sum(packetBytes) 	0
attr interpolationmode  none
attr title  "received packets, sum(packetBytes)"
scalar ErlangenLTE.pgw.ppp[0].ppp 	txState:timeavg 	-nan
attr interpolationmode  sample-hold
attr title  "tx state, timeavg"
scalar ErlangenLTE.pgw.ppp[0].ppp 	droppedPkIfaceDown:count 	0
attr interpolationmode  none
attr source  dropPkIfaceDown
attr title  "packets dropped/interface down, count"
scalar ErlangenLTE.pgw.ppp[0].ppp 	droppedPkIfaceDown:sum(packetBytes) 	0
attr interpolationmode  none
attr source  dropPkIfaceDown
attr title  "packets dropped/interface down, sum(packetBytes)"
scalar ErlangenLTE.pgw.ppp[0].ppp 	droppedPkBitError:count 	0
attr interpolationmode  none
attr source  dropPkBitError
attr title  "packets dropped/bit error, count"
scalar ErlangenLTE.pgw.ppp[0].ppp 	droppedPkBitError:sum(packetBytes) 	0
attr interpolationmode  none
attr source  dropPkBitError
attr title  "packets dropped/bit error, sum(packetBytes)"
scalar ErlangenLTE.pgw.ppp[0].ppp 	rxPkOk:count 	0
attr interpolationmode  none
attr source  rxPkOk
attr title  "packets received OK, count"
scalar ErlangenLTE.pgw.ppp[0].ppp 	rxPkOk:sum(packetBytes) 	0
attr interpolationmode  none
attr source  rxPkOk
attr title  "packets received OK, sum(packetBytes)"
scalar ErlangenLTE.pgw.ppp[0].ppp 	txPk:count 	0
attr interpolationmode  none
attr source  packetSentToLower
attr title  "packets transmitted, count"
scalar ErlangenLTE.pgw.ppp[0].ppp 	txPk:sum(packetBytes) 	0
attr interpolationmode  none
attr source  packetSentToLower
attr title  "packets transmitted, sum(packetBytes)"
scalar ErlangenLTE.pgw.ppp[0].ppp 	rcvdPkFromHL:count 	0
attr interpolationmode  none
attr source  packetReceivedFromUpper
attr title  "packets received from higher layer, count"
scalar ErlangenLTE.pgw.ppp[0].ppp 	rcvdPkFromHL:sum(packetBytes) 	0
attr interpolationmode  none
attr source  packetReceivedFromUpper
attr title  "packets received from higher layer, sum(packetBytes)"
scalar ErlangenLTE.pgw.ppp[0].ppp 	passedUpPk:count 	0
attr interpolationmode  none
attr source  packetSentToUpper
attr title  "packets passed to higher layer, count"
scalar ErlangenLTE.pgw.ppp[0].ppp 	passedUpPk:sum(packetBytes) 	0
attr interpolationmode  none
attr source  packetSentToUpper
attr title  "packets passed to higher layer, sum(packetBytes)"
statistic ErlangenLTE.pgw.ppp[1].queue 	queueingTime:histogram
field count 0
field mean -nan
field stddev -nan
field sum 0
field sqrsum 0
field min -nan
field max -nan
attr interpolationmode  none
attr title  "queueing time, histogram"
bin	-INF	0
bin	-0.5	0
bin	-0.46666666666667	0
bin	-0.43333333333333	0
bin	-0.4	0
bin	-0.36666666666667	0
bin	-0.33333333333333	0
bin	-0.3	0
bin	-0.26666666666667	0
bin	-0.23333333333333	0
bin	-0.2	0
bin	-0.16666666666667	0
bin	-0.13333333333333	0
bin	-0.1	0
bin	-0.066666666666667	0
bin	-0.033333333333333	0
bin	0	0
bin	0.033333333333333	0
bin	0.066666666666667	0
bin	0.1	0
bin	0.13333333333333	0
bin	0.16666666666667	0
bin	0.2	0
bin	0.23333333333333	0
bin	0.26666666666667	0
bin	0.3	0
bin	0.33333333333333	0
bin	0.36666666666667	0
bin	0.4	0
bin	0.43333333333333	0
bin	0.46666666666667	0
bin	0.5	0
scalar ErlangenLTE.pgw.ppp[1].queue 	dropPk:count 	0
attr interpolationmode  none
attr source  dropPkByQueue
attr title  "dropped packets, count"
scalar ErlangenLTE.pgw.ppp[1].queue 	dropPk:sum(packetBytes) 	0
attr interpolationmode  none
attr source  dropPkByQueue
attr title  "dropped packets, sum(packetBytes)"
scalar ErlangenLTE.pgw.ppp[1].queue 	queueLength:max 	0
attr interpolationmode  sample-hold
attr title  "queue length, max"
scalar ErlangenLTE.pgw.ppp[1].queue 	queueLength:timeavg 	-nan
attr interpolationmode  sample-hold
attr title  "queue length, timeavg"
scalar ErlangenLTE.pgw.ppp[1].queue 	rcvdPk:count 	0
attr interpolationmode  none
attr title  "received packets, count"
scalar ErlangenLTE.pgw.ppp[1].queue 	rcvdPk:sum(packetBytes) 	0
attr interpolationmode  none
attr title  "received packets, sum(packetBytes)"
scalar ErlangenLTE.pgw.ppp[1].ppp 	txState:timeavg 	-nan
attr interpolationmode  sample-hold
attr title  "tx state, timeavg"
scalar ErlangenLTE.pgw.ppp[1].ppp 	droppedPkIfaceDown:count 	0
attr interpolationmode  none
attr source  dropPkIfaceDown
attr title  "packets dropped/interface down, count"
scalar ErlangenLTE.pgw.ppp[1].ppp 	droppedPkIfaceDown:sum(packetBytes) 	0
attr interpolationmode  none
attr source  dropPkIfaceDown
attr title  "packets dropped/interface down, sum(packetBytes)"
scalar ErlangenLTE.pgw.ppp[1].ppp 	droppedPkBitError:count 	0
attr interpolationmode  none
attr source  dropPkBitError
attr title  "packets dropped/bit error, count"
scalar ErlangenLTE.pgw.ppp[1].ppp 	droppedPkBitError:sum(packetBytes) 	0
attr interpolationmode  none
attr source  dropPkBitError
attr title  "packets dropped/bit error, sum(packetBytes)"
scalar ErlangenLTE.pgw.ppp[1].ppp 	rxPkOk:count 	0
attr interpolationmode  none
attr source  rxPkOk
attr title  "packets received OK, count"
scalar ErlangenLTE.pgw.ppp[1].ppp 	rxPkOk:sum(packetBytes) 	0
attr interpolationmode  none
attr source  rxPkOk
attr title  "packets received OK, sum(packetBytes)"
scalar ErlangenLTE.pgw.ppp[1].ppp 	txPk:count 	0
attr interpolationmode  none
attr source  packetSentToLower
attr title  "packets transmitted, count"
scalar ErlangenLTE.pgw.ppp[1].ppp 	txPk:sum(packetBytes) 	0
attr interpolationmode  none
attr source  packetSentToLower
attr title  "packets transmitted, sum(packetBytes)"
scalar ErlangenLTE.pgw.ppp[1].ppp 	rcvdPkFromHL:count 	0
attr interpolationmode  none
attr source  packetReceivedFromUpper
attr title  "packets received from higher layer, count"
scalar ErlangenLTE.pgw.ppp[1].ppp 	rcvdPkFromHL:sum(packetBytes) 	0
attr interpolationmode  none
attr source  packetReceivedFromUpper
attr title  "packets received from higher layer, sum(packetBytes)"
scalar ErlangenLTE.pgw.ppp[1].ppp 	passedUpPk:count 	0
attr interpolationmode  none
attr source  packetSentToUpper
attr title  "packets passed to higher layer, count"
scalar ErlangenLTE.pgw.ppp[1].ppp 	passedUpPk:sum(packetBytes) 	0
attr interpolationmode  none
attr source  packetSentToUpper
attr title  "packets passed to higher layer, sum(packetBytes)"
statistic ErlangenLTE.pgw.ppp[2].queue 	queueingTime:histogram
field count 0
field mean -nan
field stddev -nan
field sum 0
field sqrsum 0
field min -nan
field max -nan
attr interpolationmode  none
attr title  "queueing time, histogram"
bin	-INF	0
bin	-0.5	0
bin	-0.46666666666667	0
bin	-0.43333333333333	0
bin	-0.4	0
bin	-0.36666666666667	0
bin	-0.33333333333333	0
bin	-0.3	0
bin	-0.26666666666667	0
bin	-0.23333333333333	0
bin	-0.2	0
bin	-0.16666666666667	0
bin	-0.13333333333333	0
bin	-0.1	0
bin	-0.066666666666667	0
bin	-0.033333333333333	0
bin	0	0
bin	0.033333333333333	0
bin	0.066666666666667	0
bin	0.1	0
bin	0.13333333333333	0
bin	0.16666666666667	0
bin	0.2	0
bin	0.23333333333333	0
bin	0.26666666666667	0
bin	0.3	0
bin	0.33333333333333	0
bin	0.36666666666667	0
bin	0.4	0
bin	0.43333333333333	0
bin	0.46666666666667	0
bin	0.5	0
scalar ErlangenLTE.pgw.ppp[2].queue 	dropPk:count 	0
attr interpolationmode  none
attr source  dropPkByQueue
attr title  "dropped packets, count"
scalar ErlangenLTE.pgw.ppp[2].queue 	dropPk:sum(packetBytes) 	0
attr interpolationmode  none
attr source  dropPkByQueue
attr title  "dropped packets, sum(packetBytes)"
scalar ErlangenLTE.pgw.ppp[2].queue 	queueLength:max 	0
attr interpolationmode  sample-hold
attr title  "queue length, max"
scalar ErlangenLTE.pgw.ppp[2].queue 	queueLength:timeavg 	-nan
attr interpolationmode  sample-hold
attr title  "queue length, timeavg"
scalar ErlangenLTE.pgw.ppp[2].queue 	rcvdPk:count 	0
attr interpolationmode  none
attr title  "received packets, count"
scalar ErlangenLTE.pgw.ppp[2].queue 	rcvdPk:sum(packetBytes) 	0
attr interpolationmode  none
attr title  "received packets, sum(packetBytes)"
scalar ErlangenLTE.pgw.ppp[2].ppp 	txState:timeavg 	-nan
attr interpolationmode  sample-hold
attr title  "tx state, timeavg"
scalar ErlangenLTE.pgw.ppp[2].ppp 	droppedPkIfaceDown:count 	0
attr interpolationmode  none
attr source  dropPkIfaceDown
attr title  "packets dropped/interface down, count"
scalar ErlangenLTE.pgw.ppp[2].ppp 	droppedPkIfaceDown:sum(packetBytes) 	0
attr interpolationmode  none
attr source  dropPkIfaceDown
attr title  "packets dropped/interface down, sum(packetBytes)"
scalar ErlangenLTE.pgw.ppp[2].ppp 	droppedPkBitError:count 	0
attr interpolationmode  none
attr source  dropPkBitError
attr title  "packets dropped/bit error, count"
scalar ErlangenLTE.pgw.ppp[2].ppp 	droppedPkBitError:sum(packetBytes) 	0
attr interpolationmode  none
attr source  dropPkBitError
attr title  "packets dropped/bit error, sum(packetBytes)"
scalar ErlangenLTE.pgw.ppp[2].ppp 	rxPkOk:count 	0
attr interpolationmode  none
attr source  rxPkOk
attr title  "packets received OK, count"
scalar ErlangenLTE.pgw.ppp[2].ppp 	rxPkOk:sum(packetBytes) 	0
attr interpolationmode  none
attr source  rxPkOk
attr title  "packets received OK, sum(packetBytes)"
scalar ErlangenLTE.pgw.ppp[2].ppp 	txPk:count 	0
attr interpolationmode  none
attr source  packetSentToLower
attr title  "packets transmitted, count"
scalar ErlangenLTE.pgw.ppp[2].ppp 	txPk:sum(packetBytes) 	0
attr interpolationmode  none
attr source  packetSentToLower
attr title  "packets transmitted, sum(packetBytes)"
scalar ErlangenLTE.pgw.ppp[2].ppp 	rcvdPkFromHL:count 	0
attr interpolationmode  none
attr source  packetReceivedFromUpper
attr title  "packets received from higher layer, count"
scalar ErlangenLTE.pgw.ppp[2].ppp 	rcvdPkFromHL:sum(packetBytes) 	0
attr interpolationmode  none
attr source  packetReceivedFromUpper
attr title  "packets received from higher layer, sum(packetBytes)"
scalar ErlangenLTE.pgw.ppp[2].ppp 	passedUpPk:count 	0
attr interpolationmode  none
attr source  packetSentToUpper
attr title  "packets passed to higher layer, count"
scalar ErlangenLTE.pgw.ppp[2].ppp 	passedUpPk:sum(packetBytes) 	0
attr interpolationmode  none
attr source  packetSentToUpper
attr title  "packets passed to higher layer, sum(packetBytes)"
statistic ErlangenLTE.pgw.ppp[3].queue 	queueingTime:histogram
field count 0
field mean -nan
field stddev -nan
field sum 0
field sqrsum 0
field min -nan
field max -nan
attr interpolationmode  none
attr title  "queueing time, histogram"
bin	-INF	0
bin	-0.5	0
bin	-0.46666666666667	0
bin	-0.43333333333333	0
bin	-0.4	0
bin	-0.36666666666667	0
bin	-0.33333333333333	0
bin	-0.3	0
bin	-0.26666666666667	0
bin	-0.23333333333333	0
bin	-0.2	0
bin	-0.16666666666667	0
bin	-0.13333333333333	0
bin	-0.1	0
bin	-0.066666666666667	0
bin	-0.033333333333333	0
bin	0	0
bin	0.033333333333333	0
bin	0.066666666666667	0
bin	0.1	0
bin	0.13333333333333	0
bin	0.16666666666667	0
bin	0.2	0
bin	0.23333333333333	0
bin	0.26666666666667	0
bin	0.3	0
bin	0.33333333333333	0
bin	0.36666666666667	0
bin	0.4	0
bin	0.43333333333333	0
bin	0.46666666666667	0
bin	0.5	0
scalar ErlangenLTE.pgw.ppp[3].queue 	dropPk:count 	0
attr interpolationmode  none
attr source  dropPkByQueue
attr title  "dropped packets, count"
scalar ErlangenLTE.pgw.ppp[3].queue 	dropPk:sum(packetBytes) 	0
attr interpolationmode  none
attr source  dropPkByQueue
attr title  "dropped packets, sum(packetBytes)"
scalar ErlangenLTE.pgw.ppp[3].queue 	queueLength:max 	0
attr interpolationmode  sample-hold
attr title  "queue length, max"
scalar ErlangenLTE.pgw.ppp[3].queue 	queueLength:timeavg 	-nan
attr interpolationmode  sample-hold
attr title  "queue length, timeavg"
scalar ErlangenLTE.pgw.ppp[3].queue 	rcvdPk:count 	0
attr interpolationmode  none
attr title  "received packets, count"
scalar ErlangenLTE.pgw.ppp[3].queue 	rcvdPk:sum(packetBytes) 	0
attr interpolationmode  none
attr title  "received packets, sum(packetBytes)"
scalar ErlangenLTE.pgw.ppp[3].ppp 	txState:timeavg 	-nan
attr interpolationmode  sample-hold
attr title  "tx state, timeavg"
scalar ErlangenLTE.pgw.ppp[3].ppp 	droppedPkIfaceDown:count 	0
attr interpolationmode  none
attr source  dropPkIfaceDown
attr title  "packets dropped/interface down, count"
scalar ErlangenLTE.pgw.ppp[3].ppp 	droppedPkIfaceDown:sum(packetBytes) 	0
attr interpolationmode  none
attr source  dropPkIfaceDown
attr title  "packets dropped/interface down, sum(packetBytes)"
scalar ErlangenLTE.pgw.ppp[3].ppp 	droppedPkBitError:count 	0
attr interpolationmode  none
attr source  dropPkBitError
attr title  "packets dropped/bit error, count"
scalar ErlangenLTE.pgw.ppp[3].ppp 	droppedPkBitError:sum(packetBytes) 	0
attr interpolationmode  none
attr source  dropPkBitError
attr title  "packets dropped/bit error, sum(packetBytes)"
scalar ErlangenLTE.pgw.ppp[3].ppp 	rxPkOk:count 	0
attr interpolationmode  none
attr source  rxPkOk
attr title  "packets received OK, count"
scalar ErlangenLTE.pgw.ppp[3].ppp 	rxPkOk:sum(packetBytes) 	0
attr interpolationmode  none
attr source  rxPkOk
attr title  "packets received OK, sum(packetBytes)"
scalar ErlangenLTE.pgw.ppp[3].ppp 	txPk:count 	0
attr interpolationmode  none
attr source  packetSentToLower
attr title  "packets transmitted, count"
scalar ErlangenLTE.pgw.ppp[3].ppp 	txPk:sum(packetBytes) 	0
attr interpolationmode  none
attr source  packetSentToLower
attr title  "packets transmitted, sum(packetBytes)"
scalar ErlangenLTE.pgw.ppp[3].ppp 	rcvdPkFromHL:count 	0
attr interpolationmode  none
attr source  packetReceivedFromUpper
attr title  "packets received from higher layer, count"
scalar ErlangenLTE.pgw.ppp[3].ppp 	rcvdPkFromHL:sum(packetBytes) 	0
attr interpolationmode  none
attr source  packetReceivedFromUpper
attr title  "packets received from higher layer, sum(packetBytes)"
scalar ErlangenLTE.pgw.ppp[3].ppp 	passedUpPk:count 	0
attr interpolationmode  none
attr source  packetSentToUpper
attr title  "packets passed to higher layer, count"
scalar ErlangenLTE.pgw.ppp[3].ppp 	passedUpPk:sum(packetBytes) 	0
attr interpolationmode  none
attr source  packetSentToUpper
attr title  "packets passed to higher layer, sum(packetBytes)"
statistic ErlangenLTE.pgw.ppp[4].queue 	queueingTime:histogram
field count 0
field mean -nan
field stddev -nan
field sum 0
field sqrsum 0
field min -nan
field max -nan
attr interpolationmode  none
attr title  "queueing time, histogram"
bin	-INF	0
bin	-0.5	0
bin	-0.46666666666667	0
bin	-0.43333333333333	0
bin	-0.4	0
bin	-0.36666666666667	0
bin	-0.33333333333333	0
bin	-0.3	0
bin	-0.26666666666667	0
bin	-0.23333333333333	0
bin	-0.2	0
bin	-0.16666666666667	0
bin	-0.13333333333333	0
bin	-0.1	0
bin	-0.066666666666667	0
bin	-0.033333333333333	0
bin	0	0
bin	0.033333333333333	0
bin	0.066666666666667	0
bin	0.1	0
bin	0.13333333333333	0
bin	0.16666666666667	0
bin	0.2	0
bin	0.23333333333333	0
bin	0.26666666666667	0
bin	0.3	0
bin	0.33333333333333	0
bin	0.36666666666667	0
bin	0.4	0
bin	0.43333333333333	0
bin	0.46666666666667	0
bin	0.5	0
scalar ErlangenLTE.pgw.ppp[4].queue 	dropPk:count 	0
attr interpolationmode  none
attr source  dropPkByQueue
attr title  "dropped packets, count"
scalar ErlangenLTE.pgw.ppp[4].queue 	dropPk:sum(packetBytes) 	0
attr interpolationmode  none
attr source  dropPkByQueue
attr title  "dropped packets, sum(packetBytes)"
scalar ErlangenLTE.pgw.ppp[4].queue 	queueLength:max 	0
attr interpolationmode  sample-hold
attr title  "queue length, max"
scalar ErlangenLTE.pgw.ppp[4].queue 	queueLength:timeavg 	-nan
attr interpolationmode  sample-hold
attr title  "queue length, timeavg"
scalar ErlangenLTE.pgw.ppp[4].queue 	rcvdPk:count 	0
attr interpolationmode  none
attr title  "received packets, count"
scalar ErlangenLTE.pgw.ppp[4].queue 	rcvdPk:sum(packetBytes) 	0
attr interpolationmode  none
attr title  "received packets, sum(packetBytes)"
scalar ErlangenLTE.pgw.ppp[4].ppp 	txState:timeavg 	-nan
attr interpolationmode  sample-hold
attr title  "tx state, timeavg"
scalar ErlangenLTE.pgw.ppp[4].ppp 	droppedPkIfaceDown:count 	0
attr interpolationmode  none
attr source  dropPkIfaceDown
attr title  "packets dropped/interface down, count"
scalar ErlangenLTE.pgw.ppp[4].ppp 	droppedPkIfaceDown:sum(packetBytes) 	0
attr interpolationmode  none
attr source  dropPkIfaceDown
attr title  "packets dropped/interface down, sum(packetBytes)"
scalar ErlangenLTE.pgw.ppp[4].ppp 	droppedPkBitError:count 	0
attr interpolationmode  none
attr source  dropPkBitError
attr title  "packets dropped/bit error, count"
scalar ErlangenLTE.pgw.ppp[4].ppp 	droppedPkBitError:sum(packetBytes) 	0
attr interpolationmode  none
attr source  dropPkBitError
attr title  "packets dropped/bit error, sum(packetBytes)"
scalar ErlangenLTE.pgw.ppp[4].ppp 	rxPkOk:count 	0
attr interpolationmode  none
attr source  rxPkOk
attr title  "packets received OK, count"
scalar ErlangenLTE.pgw.ppp[4].ppp 	rxPkOk:sum(packetBytes) 	0
attr interpolationmode  none
attr source  rxPkOk
attr title  "packets received OK, sum(packetBytes)"
scalar ErlangenLTE.pgw.ppp[4].ppp 	txPk:count 	0
attr interpolationmode  none
attr source  packetSentToLower
attr title  "packets transmitted, count"
scalar ErlangenLTE.pgw.ppp[4].ppp 	txPk:sum(packetBytes) 	0
attr interpolationmode  none
attr source  packetSentToLower
attr title  "packets transmitted, sum(packetBytes)"
scalar ErlangenLTE.pgw.ppp[4].ppp 	rcvdPkFromHL:count 	0
attr interpolationmode  none
attr source  packetReceivedFromUpper
attr title  "packets received from higher layer, count"
scalar ErlangenLTE.pgw.ppp[4].ppp 	rcvdPkFromHL:sum(packetBytes) 	0
attr interpolationmode  none
attr source  packetReceivedFromUpper
attr title  "packets received from higher layer, sum(packetBytes)"
scalar ErlangenLTE.pgw.ppp[4].ppp 	passedUpPk:count 	0
attr interpolationmode  none
attr source  packetSentToUpper
attr title  "packets passed to higher layer, count"
scalar ErlangenLTE.pgw.ppp[4].ppp 	passedUpPk:sum(packetBytes) 	0
attr interpolationmode  none
attr source  packetSentToUpper
attr title  "packets passed to higher layer, sum(packetBytes)"
statistic ErlangenLTE.pgw.ppp[5].queue 	queueingTime:histogram
field count 0
field mean -nan
field stddev -nan
field sum 0
field sqrsum 0
field min -nan
field max -nan
attr interpolationmode  none
attr title  "queueing time, histogram"
bin	-INF	0
bin	-0.5	0
bin	-0.46666666666667	0
bin	-0.43333333333333	0
bin	-0.4	0
bin	-0.36666666666667	0
bin	-0.33333333333333	0
bin	-0.3	0
bin	-0.26666666666667	0
bin	-0.23333333333333	0
bin	-0.2	0
bin	-0.16666666666667	0
bin	-0.13333333333333	0
bin	-0.1	0
bin	-0.066666666666667	0
bin	-0.033333333333333	0
bin	0	0
bin	0.033333333333333	0
bin	0.066666666666667	0
bin	0.1	0
bin	0.13333333333333	0
bin	0.16666666666667	0
bin	0.2	0
bin	0.23333333333333	0
bin	0.26666666666667	0
bin	0.3	0
bin	0.33333333333333	0
bin	0.36666666666667	0
bin	0.4	0
bin	0.43333333333333	0
bin	0.46666666666667	0
bin	0.5	0
scalar ErlangenLTE.pgw.ppp[5].queue 	dropPk:count 	0
attr interpolationmode  none
attr source  dropPkByQueue
attr title  "dropped packets, count"
scalar ErlangenLTE.pgw.ppp[5].queue 	dropPk:sum(packetBytes) 	0
attr interpolationmode  none
attr source  dropPkByQueue
attr title  "dropped packets, sum(packetBytes)"
scalar ErlangenLTE.pgw.ppp[5].queue 	queueLength:max 	0
attr interpolationmode  sample-hold
attr title  "queue length, max"
scalar ErlangenLTE.pgw.ppp[5].queue 	queueLength:timeavg 	-nan
attr interpolationmode  sample-hold
attr title  "queue length, timeavg"
scalar ErlangenLTE.pgw.ppp[5].queue 	rcvdPk:count 	0
attr interpolationmode  none
attr title  "received packets, count"
scalar ErlangenLTE.pgw.ppp[5].queue 	rcvdPk:sum(packetBytes) 	0
attr interpolationmode  none
attr title  "received packets, sum(packetBytes)"
scalar ErlangenLTE.pgw.ppp[5].ppp 	txState:timeavg 	-nan
attr interpolationmode  sample-hold
attr title  "tx state, timeavg"
scalar ErlangenLTE.pgw.ppp[5].ppp 	droppedPkIfaceDown:count 	0
attr interpolationmode  none
attr source  dropPkIfaceDown
attr title  "packets dropped/interface down, count"
scalar ErlangenLTE.pgw.ppp[5].ppp 	droppedPkIfaceDown:sum(packetBytes) 	0
attr interpolationmode  none
attr source  dropPkIfaceDown
attr title  "packets dropped/interface down, sum(packetBytes)"
scalar ErlangenLTE.pgw.ppp[5].ppp 	droppedPkBitError:count 	0
attr interpolationmode  none
attr source  dropPkBitError
attr title  "packets dropped/bit error, count"
scalar ErlangenLTE.pgw.ppp[5].ppp 	droppedPkBitError:sum(packetBytes) 	0
attr interpolationmode  none
attr source  dropPkBitError
attr title  "packets dropped/bit error, sum(packetBytes)"
scalar ErlangenLTE.pgw.ppp[5].ppp 	rxPkOk:count 	0
attr interpolationmode  none
attr source  rxPkOk
attr title  "packets received OK, count"
[...]
scalar ErlangenLTE.eNodeB66.x2ppp[0].queue 	rcvdPk:count 	0
attr interpolationmode  none
attr title  "received packets, count"
scalar ErlangenLTE.eNodeB66.x2ppp[0].queue 	rcvdPk:sum(packetBytes) 	0
attr interpolationmode  none
attr title  "received packets, sum(packetBytes)"
scalar ErlangenLTE.eNodeB66.x2ppp[0].ppp 	txState:timeavg 	-nan
attr interpolationmode  sample-hold
attr title  "tx state, timeavg"
scalar ErlangenLTE.eNodeB66.x2ppp[0].ppp 	droppedPkIfaceDown:count 	0
attr interpolationmode  none
attr source  dropPkIfaceDown
attr title  "packets dropped/interface down, count"
scalar ErlangenLTE.eNodeB66.x2ppp[0].ppp 	droppedPkIfaceDown:sum(packetBytes) 	0
attr interpolationmode  none
attr source  dropPkIfaceDown
attr title  "packets dropped/interface down, sum(packetBytes)"
scalar ErlangenLTE.eNodeB66.x2ppp[0].ppp 	droppedPkBitError:count 	0
attr interpolationmode  none
attr source  dropPkBitError
attr title  "packets dropped/bit error, count"
scalar ErlangenLTE.eNodeB66.x2ppp[0].ppp 	droppedPkBitError:sum(packetBytes) 	0
attr interpolationmode  none
attr source  dropPkBitError
attr title  "packets dropped/bit error, sum(packetBytes)"
scalar ErlangenLTE.eNodeB66.x2ppp[0].ppp 	rxPkOk:count 	0
attr interpolationmode  none
attr source  rxPkOk
attr title  "packets received OK, count"
scalar ErlangenLTE.eNodeB66.x2ppp[0].ppp 	rxPkOk:sum(packetBytes) 	0
attr interpolationmode  none
attr source  rxPkOk
attr title  "packets received OK, sum(packetBytes)"
scalar ErlangenLTE.eNodeB66.x2ppp[0].ppp 	txPk:count 	0
attr interpolationmode  none
attr source  packetSentToLower
attr title  "packets transmitted, count"
scalar ErlangenLTE.eNodeB66.x2ppp[0].ppp 	txPk:sum(packetBytes) 	0
attr interpolationmode  none
attr source  packetSentToLower
attr title  "packets transmitted, sum(packetBytes)"
scalar ErlangenLTE.eNodeB66.x2ppp[0].ppp 	rcvdPkFromHL:count 	0
attr interpolationmode  none
attr source  packetReceivedFromUpper
attr title  "packets received from higher layer, count"
scalar ErlangenLTE.eNodeB66.x2ppp[0].ppp 	rcvdPkFromHL:sum(packetBytes) 	0
attr interpolationmode  none
attr source  packetReceivedFromUpper
attr title  "packets received from higher layer, sum(packetBytes)"
scalar ErlangenLTE.eNodeB66.x2ppp[0].ppp 	passedUpPk:count 	0
attr interpolationmode  none
attr source  packetSentToUpper
attr title  "packets passed to higher layer, count"
scalar ErlangenLTE.eNodeB66.x2ppp[0].ppp 	passedUpPk:sum(packetBytes) 	0
attr interpolationmode  none
attr source  packetSentToUpper
attr title  "packets passed to higher layer, sum(packetBytes)"
statistic ErlangenLTE.eNodeB66.x2ppp[1].queue 	queueingTime:histogram
field count 0
field mean -nan
field stddev -nan
field sum 0
field sqrsum 0
field min -nan
field max -nan
attr interpolationmode  none
attr title  "queueing time, histogram"
bin	-INF	0
bin	-0.5	0
bin	-0.46666666666667	0
bin	-0.43333333333333	0
bin	-0.4	0
bin	-0.36666666666667	0
bin	-0.33333333333333	0
bin	-0.3	0
bin	-0.26666666666667	0
bin	-0.23333333333333	0
bin	-0.2	0
bin	-0.16666666666667	0
bin	-0.13333333333333	0
bin	-0.1	0
bin	-0.066666666666667	0
bin	-0.033333333333333	0
bin	0	0
bin	0.033333333333333	0
bin	0.066666666666667	0
bin	0.1	0
bin	0.13333333333333	0
bin	0.16666666666667	0
bin	0.2	0
bin	0.23333333333333	0
bin	0.26666666666667	0
bin	0.3	0
bin	0.33333333333333	0
bin	0.36666666666667	0
bin	0.4	0
bin	0.43333333333333	0
bin	0.46666666666667	0
bin	0.5	0
scalar ErlangenLTE.eNodeB66.x2ppp[1].queue 	dropPk:count 	0
attr interpolationmode  none
attr source  dropPkByQueue
attr title  "dropped packets, count"
scalar ErlangenLTE.eNodeB66.x2ppp[1].queue 	dropPk:sum(packetBytes) 	0
attr interpolationmode  none
attr source  dropPkByQueue
attr title  "dropped packets, sum(packetBytes)"
scalar ErlangenLTE.eNodeB66.x2ppp[1].queue 	queueLength:max 	0
attr interpolationmode  sample-hold
attr title  "queue length, max"
scalar ErlangenLTE.eNodeB66.x2ppp[1].queue 	queueLength:timeavg 	-nan
attr interpolationmode  sample-hold
attr title  "queue length, timeavg"
scalar ErlangenLTE.eNodeB66.x2ppp[1].queue 	rcvdPk:count 	0
attr interpolationmode  none
attr title  "received packets, count"
scalar ErlangenLTE.eNodeB66.x2ppp[1].queue 	rcvdPk:sum(packetBytes) 	0
attr interpolationmode  none
attr title  "received packets, sum(packetBytes)"
scalar ErlangenLTE.eNodeB66.x2ppp[1].ppp 	txState:timeavg 	-nan
attr interpolationmode  sample-hold
attr title  "tx state, timeavg"
scalar ErlangenLTE.eNodeB66.x2ppp[1].ppp 	droppedPkIfaceDown:count 	0
attr interpolationmode  none
attr source  dropPkIfaceDown
attr title  "packets dropped/interface down, count"
scalar ErlangenLTE.eNodeB66.x2ppp[1].ppp 	droppedPkIfaceDown:sum(packetBytes) 	0
attr interpolationmode  none
attr source  dropPkIfaceDown
attr title  "packets dropped/interface down, sum(packetBytes)"
scalar ErlangenLTE.eNodeB66.x2ppp[1].ppp 	droppedPkBitError:count 	0
attr interpolationmode  none
attr source  dropPkBitError
attr title  "packets dropped/bit error, count"
scalar ErlangenLTE.eNodeB66.x2ppp[1].ppp 	droppedPkBitError:sum(packetBytes) 	0
attr interpolationmode  none
attr source  dropPkBitError
attr title  "packets dropped/bit error, sum(packetBytes)"
scalar ErlangenLTE.eNodeB66.x2ppp[1].ppp 	rxPkOk:count 	0
attr interpolationmode  none
attr source  rxPkOk
attr title  "packets received OK, count"
scalar ErlangenLTE.eNodeB66.x2ppp[1].ppp 	rxPkOk:sum(packetBytes) 	0
attr interpolationmode  none
attr source  rxPkOk
attr title  "packets received OK, sum(packetBytes)"
scalar ErlangenLTE.eNodeB66.x2ppp[1].ppp 	txPk:count 	0
attr interpolationmode  none
attr source  packetSentToLower
attr title  "packets transmitted, count"
scalar ErlangenLTE.eNodeB66.x2ppp[1].ppp 	txPk:sum(packetBytes) 	0
attr interpolationmode  none
attr source  packetSentToLower
attr title  "packets transmitted, sum(packetBytes)"
scalar ErlangenLTE.eNodeB66.x2ppp[1].ppp 	rcvdPkFromHL:count 	0
attr interpolationmode  none
attr source  packetReceivedFromUpper
attr title  "packets received from higher layer, count"
scalar ErlangenLTE.eNodeB66.x2ppp[1].ppp 	rcvdPkFromHL:sum(packetBytes) 	0
attr interpolationmode  none
attr source  packetReceivedFromUpper
attr title  "packets received from higher layer, sum(packetBytes)"
scalar ErlangenLTE.eNodeB66.x2ppp[1].ppp 	passedUpPk:count 	0
attr interpolationmode  none
attr source  packetSentToUpper
attr title  "packets passed to higher layer, count"
scalar ErlangenLTE.eNodeB66.x2ppp[1].ppp 	passedUpPk:sum(packetBytes) 	0
attr interpolationmode  none
attr source  packetSentToUpper
attr title  "packets passed to higher layer, sum(packetBytes)"
statistic ErlangenLTE.eNodeB66.x2ppp[2].queue 	queueingTime:histogram
field count 0
field mean -nan
field stddev -nan
field sum 0
field sqrsum 0
field min -nan
field max -nan
attr interpolationmode  none
attr title  "queueing time, histogram"
bin	-INF	0
bin	-0.5	0
bin	-0.46666666666667	0
bin	-0.43333333333333	0
bin	-0.4	0
bin	-0.36666666666667	0
bin	-0.33333333333333	0
bin	-0.3	0
bin	-0.26666666666667	0
bin	-0.23333333333333	0
bin	-0.2	0
bin	-0.16666666666667	0
bin	-0.13333333333333	0
bin	-0.1	0
bin	-0.066666666666667	0
bin	-0.033333333333333	0
bin	0	0
bin	0.033333333333333	0
bin	0.066666666666667	0
bin	0.1	0
bin	0.13333333333333	0
bin	0.16666666666667	0
bin	0.2	0
bin	0.23333333333333	0
bin	0.26666666666667	0
bin	0.3	0
bin	0.33333333333333	0
bin	0.36666666666667	0
bin	0.4	0
bin	0.43333333333333	0
bin	0.46666666666667	0
bin	0.5	0
scalar ErlangenLTE.eNodeB66.x2ppp[2].queue 	dropPk:count 	0
attr interpolationmode  none
attr source  dropPkByQueue
attr title  "dropped packets, count"
scalar ErlangenLTE.eNodeB66.x2ppp[2].queue 	dropPk:sum(packetBytes) 	0
attr interpolationmode  none
attr source  dropPkByQueue
attr title  "dropped packets, sum(packetBytes)"
scalar ErlangenLTE.eNodeB66.x2ppp[2].queue 	queueLength:max 	0
attr interpolationmode  sample-hold
attr title  "queue length, max"
scalar ErlangenLTE.eNodeB66.x2ppp[2].queue 	queueLength:timeavg 	-nan
attr interpolationmode  sample-hold
attr title  "queue length, timeavg"
scalar ErlangenLTE.eNodeB66.x2ppp[2].queue 	rcvdPk:count 	0
attr interpolationmode  none
attr title  "received packets, count"
scalar ErlangenLTE.eNodeB66.x2ppp[2].queue 	rcvdPk:sum(packetBytes) 	0
attr interpolationmode  none
attr title  "received packets, sum(packetBytes)"
scalar ErlangenLTE.eNodeB66.x2ppp[2].ppp 	txState:timeavg 	-nan
attr interpolationmode  sample-hold
attr title  "tx state, timeavg"
scalar ErlangenLTE.eNodeB66.x2ppp[2].ppp 	droppedPkIfaceDown:count 	0
attr interpolationmode  none
attr source  dropPkIfaceDown
attr title  "packets dropped/interface down, count"
scalar ErlangenLTE.eNodeB66.x2ppp[2].ppp 	droppedPkIfaceDown:sum(packetBytes) 	0
attr interpolationmode  none
attr source  dropPkIfaceDown
attr title  "packets dropped/interface down, sum(packetBytes)"
scalar ErlangenLTE.eNodeB66.x2ppp[2].ppp 	droppedPkBitError:count 	0
attr interpolationmode  none
attr source  dropPkBitError
attr title  "packets dropped/bit error, count"
scalar ErlangenLTE.eNodeB66.x2ppp[2].ppp 	droppedPkBitError:sum(packetBytes) 	0
attr interpolationmode  none
attr source  dropPkBitError
attr title  "packets dropped/bit error, sum(packetBytes)"
scalar ErlangenLTE.eNodeB66.x2ppp[2].ppp 	rxPkOk:count 	0
attr interpolationmode  none
attr source  rxPkOk
attr title  "packets received OK, count"
scalar ErlangenLTE.eNodeB66.x2ppp[2].ppp 	rxPkOk:sum(packetBytes) 	0
attr interpolationmode  none
attr source  rxPkOk
attr title  "packets received OK, sum(packetBytes)"
scalar ErlangenLTE.eNodeB66.x2ppp[2].ppp 	txPk:count 	0
attr interpolationmode  none
attr source  packetSentToLower
attr title  "packets transmitted, count"
scalar ErlangenLTE.eNodeB66.x2ppp[2].ppp 	txPk:sum(packetBytes) 	0
attr interpolationmode  none
attr source  packetSentToLower
attr title  "packets transmitted, sum(packetBytes)"
scalar ErlangenLTE.eNodeB66.x2ppp[2].ppp 	rcvdPkFromHL:count 	0
attr interpolationmode  none
attr source  packetReceivedFromUpper
attr title  "packets received from higher layer, count"
scalar ErlangenLTE.eNodeB66.x2ppp[2].ppp 	rcvdPkFromHL:sum(packetBytes) 	0
attr interpolationmode  none
attr source  packetReceivedFromUpper
attr title  "packets received from higher layer, sum(packetBytes)"
scalar ErlangenLTE.eNodeB66.x2ppp[2].ppp 	passedUpPk:count 	0
attr interpolationmode  none
attr source  packetSentToUpper
attr title  "packets passed to higher layer, count"
scalar ErlangenLTE.eNodeB66.x2ppp[2].ppp 	passedUpPk:sum(packetBytes) 	0
attr interpolationmode  none
attr source  packetSentToUpper
attr title  "packets passed to higher layer, sum(packetBytes)"
statistic ErlangenLTE.eNodeB66.x2ppp[3].queue 	queueingTime:histogram
field count 0
field mean -nan
field stddev -nan
field sum 0
field sqrsum 0
field min -nan
field max -nan
attr interpolationmode  none
attr title  "queueing time, histogram"
bin	-INF	0
bin	-0.5	0
bin	-0.46666666666667	0
bin	-0.43333333333333	0
bin	-0.4	0
bin	-0.36666666666667	0
bin	-0.33333333333333	0
bin	-0.3	0
bin	-0.26666666666667	0
bin	-0.23333333333333	0
bin	-0.2	0
bin	-0.16666666666667	0
bin	-0.13333333333333	0
bin	-0.1	0
bin	-0.066666666666667	0
bin	-0.033333333333333	0
bin	0	0
bin	0.033333333333333	0
bin	0.066666666666667	0
bin	0.1	0
bin	0.13333333333333	0
bin	0.16666666666667	0
bin	0.2	0
bin	0.23333333333333	0
bin	0.26666666666667	0
bin	0.3	0
bin	0.33333333333333	0
bin	0.36666666666667	0
bin	0.4	0
bin	0.43333333333333	0
bin	0.46666666666667	0
bin	0.5	0
scalar ErlangenLTE.eNodeB66.x2ppp[3].queue 	dropPk:count 	0
attr interpolationmode  none
attr source  dropPkByQueue
attr title  "dropped packets, count"
scalar ErlangenLTE.eNodeB66.x2ppp[3].queue 	dropPk:sum(packetBytes) 	0
attr interpolationmode  none
attr source  dropPkByQueue
attr title  "dropped packets, sum(packetBytes)"
scalar ErlangenLTE.eNodeB66.x2ppp[3].queue 	queueLength:max 	0
attr interpolationmode  sample-hold
attr title  "queue length, max"
scalar ErlangenLTE.eNodeB66.x2ppp[3].queue 	queueLength:timeavg 	-nan
attr interpolationmode  sample-hold
attr title  "queue length, timeavg"
scalar ErlangenLTE.eNodeB66.x2ppp[3].queue 	rcvdPk:count 	0
attr interpolationmode  none
attr title  "received packets, count"
scalar ErlangenLTE.eNodeB66.x2ppp[3].queue 	rcvdPk:sum(packetBytes) 	0
attr interpolationmode  none
attr title  "received packets, sum(packetBytes)"
scalar ErlangenLTE.eNodeB66.x2ppp[3].ppp 	txState:timeavg 	-nan
attr interpolationmode  sample-hold
attr title  "tx state, timeavg"
scalar ErlangenLTE.eNodeB66.x2ppp[3].ppp 	droppedPkIfaceDown:count 	0
attr interpolationmode  none
attr source  dropPkIfaceDown
attr title  "packets dropped/interface down, count"
scalar ErlangenLTE.eNodeB66.x2ppp[3].ppp 	droppedPkIfaceDown:sum(packetBytes) 	0
attr interpolationmode  none
attr source  dropPkIfaceDown
attr title  "packets dropped/interface down, sum(packetBytes)"
scalar ErlangenLTE.eNodeB66.x2ppp[3].ppp 	droppedPkBitError:count 	0
attr interpolationmode  none
attr source  dropPkBitError
attr title  "packets dropped/bit error, count"
scalar ErlangenLTE.eNodeB66.x2ppp[3].ppp 	droppedPkBitError:sum(packetBytes) 	0
attr interpolationmode  none
attr source  dropPkBitError
attr title  "packets dropped/bit error, sum(packetBytes)"
scalar ErlangenLTE.eNodeB66.x2ppp[3].ppp 	rxPkOk:count 	0
attr interpolationmode  none
attr source  rxPkOk
attr title  "packets received OK, count"
scalar ErlangenLTE.eNodeB66.x2ppp[3].ppp 	rxPkOk:sum(packetBytes) 	0
attr interpolationmode  none
attr source  rxPkOk
attr title  "packets received OK, sum(packetBytes)"
scalar ErlangenLTE.eNodeB66.x2ppp[3].ppp 	txPk:count 	0
attr interpolationmode  none
attr source  packetSentToLower
attr title  "packets transmitted, count"
scalar ErlangenLTE.eNodeB66.x2ppp[3].ppp 	txPk:sum(packetBytes) 	0
attr interpolationmode  none
attr source  packetSentToLower
attr title  "packets transmitted, sum(packetBytes)"
scalar ErlangenLTE.eNodeB66.x2ppp[3].ppp 	rcvdPkFromHL:count 	0
attr interpolationmode  none
attr source  packetReceivedFromUpper
attr title  "packets received from higher layer, count"
scalar ErlangenLTE.eNodeB66.x2ppp[3].ppp 	rcvdPkFromHL:sum(packetBytes) 	0
attr interpolationmode  none
attr source  packetReceivedFromUpper
attr title  "packets received from higher layer, sum(packetBytes)"
scalar ErlangenLTE.eNodeB66.x2ppp[3].ppp 	passedUpPk:count 	0
attr interpolationmode  none
attr source  packetSentToUpper
attr title  "packets passed to higher layer, count"
scalar ErlangenLTE.eNodeB66.x2ppp[3].ppp 	passedUpPk:sum(packetBytes) 	0
attr interpolationmode  none
attr source  packetSentToUpper
attr title  "packets passed to higher layer, sum(packetBytes)"
scalar ErlangenLTE.eNodeB66.networkLayer.arp 	failedARPResolution:count 	0
attr title  "ARP failed resolutions, count"
scalar ErlangenLTE.eNodeB66.networkLayer.arp 	completedARPResolution:count 	0
attr title  "ARP completed resolutions, count"
scalar ErlangenLTE.eNodeB66.networkLayer.arp 	initiatedARPResolution:count 	0
attr title  "ARP initiated resolutions, count"
scalar ErlangenLTE.eNodeB66.networkLayer.arp 	sentReply:count 	0
attr title  "ARP replies sent, count"
scalar ErlangenLTE.eNodeB66.networkLayer.arp 	sentReq:count 	0
attr title  "ARP request sent, count"
scalar ErlangenLTE.eNodeB66.udp 	droppedPkBadChecksum:count 	0
attr interpolationmode  none
attr title  "packets dropped (checksum error), count"
scalar ErlangenLTE.eNodeB66.udp 	droppedPkWrongPort:count 	0
attr interpolationmode  none
attr title  "packets dropped (wrong port), count"
scalar ErlangenLTE.eNodeB66.udp 	passedUpPk:count 	0
attr interpolationmode  none
attr title  "packets passed up, count"
scalar ErlangenLTE.eNodeB66.udp 	rcvdPk:count 	0
attr interpolationmode  none
attr source  rcvdPk
attr title  "packets received, count"
scalar ErlangenLTE.eNodeB66.udp 	rcvdPk:sum(packetBytes) 	0
attr interpolationmode  none
attr source  rcvdPk
attr title  "packets received, sum(packetBytes)"
scalar ErlangenLTE.eNodeB66.udp 	sentPk:count 	0
attr interpolationmode  none
attr source  sentPk
attr title  "packets sent, count"
scalar ErlangenLTE.eNodeB66.udp 	sentPk:sum(packetBytes) 	0
attr interpolationmode  none
attr source  sentPk
attr title  "packets sent, sum(packetBytes)"
scalar ErlangenLTE.eNodeB66.x2App[0].client 	echoedPk:count 	0
attr interpolationmode  none
attr source  echoedPk
attr title  "packets echoed, count"
scalar ErlangenLTE.eNodeB66.x2App[0].client 	echoedPk:sum(packetBytes) 	0
attr interpolationmode  none
attr source  echoedPk
attr title  "packets echoed, sum(packetBytes)"
scalar ErlangenLTE.eNodeB66.x2App[0].client 	rcvdPk:count 	0
attr interpolationmode  none
attr source  rcvdPk
attr title  "packets received, count"
scalar ErlangenLTE.eNodeB66.x2App[0].client 	rcvdPk:sum(packetBytes) 	0
attr interpolationmode  none
attr source  rcvdPk
attr title  "packets received, sum(packetBytes)"
scalar ErlangenLTE.eNodeB66.x2App[0].client 	sentPk:count 	0
attr interpolationmode  none
attr source  sentPk
attr title  "packets sent, count"
scalar ErlangenLTE.eNodeB66.x2App[0].client 	sentPk:sum(packetBytes) 	0
attr interpolationmode  none
attr source  sentPk
attr title  "packets sent, sum(packetBytes)"
scalar ErlangenLTE.eNodeB66.x2App[1].client 	echoedPk:count 	0
attr interpolationmode  none
attr source  echoedPk
attr title  "packets echoed, count"
scalar ErlangenLTE.eNodeB66.x2App[1].client 	echoedPk:sum(packetBytes) 	0
attr interpolationmode  none
attr source  echoedPk
attr title  "packets echoed, sum(packetBytes)"
scalar ErlangenLTE.eNodeB66.x2App[1].client 	rcvdPk:count 	0
attr interpolationmode  none
attr source  rcvdPk
attr title  "packets received, count"
scalar ErlangenLTE.eNodeB66.x2App[1].client 	rcvdPk:sum(packetBytes) 	0
attr interpolationmode  none
attr source  rcvdPk
attr title  "packets received, sum(packetBytes)"
scalar ErlangenLTE.eNodeB66.x2App[1].client 	sentPk:count 	0
attr interpolationmode  none
attr source  sentPk
attr title  "packets sent, count"
scalar ErlangenLTE.eNodeB66.x2App[1].client 	sentPk:sum(packetBytes) 	0
attr interpolationmode  none
attr source  sentPk
attr title  "packets sent, sum(packetBytes)"
scalar ErlangenLTE.eNodeB66.x2App[2].client 	echoedPk:count 	0
attr interpolationmode  none
attr source  echoedPk
attr title  "packets echoed, count"
scalar ErlangenLTE.eNodeB66.x2App[2].client 	echoedPk:sum(packetBytes) 	0
attr interpolationmode  none
attr source  echoedPk
attr title  "packets echoed, sum(packetBytes)"
scalar ErlangenLTE.eNodeB66.x2App[2].client 	rcvdPk:count 	0
attr interpolationmode  none
attr source  rcvdPk
attr title  "packets received, count"
scalar ErlangenLTE.eNodeB66.x2App[2].client 	rcvdPk:sum(packetBytes) 	0
attr interpolationmode  none
attr source  rcvdPk
attr title  "packets received, sum(packetBytes)"
scalar ErlangenLTE.eNodeB66.x2App[2].client 	sentPk:count 	0
attr interpolationmode  none
attr source  sentPk
attr title  "packets sent, count"
scalar ErlangenLTE.eNodeB66.x2App[2].client 	sentPk:sum(packetBytes) 	0
attr interpolationmode  none
attr source  sentPk
attr title  "packets sent, sum(packetBytes)"
scalar ErlangenLTE.eNodeB66.x2App[3].client 	echoedPk:count 	0
attr interpolationmode  none
attr source  echoedPk
attr title  "packets echoed, count"
scalar ErlangenLTE.eNodeB66.x2App[3].client 	echoedPk:sum(packetBytes) 	0
attr interpolationmode  none
attr source  echoedPk
attr title  "packets echoed, sum(packetBytes)"
scalar ErlangenLTE.eNodeB66.x2App[3].client 	rcvdPk:count 	0
attr interpolationmode  none
attr source  rcvdPk
attr title  "packets received, count"
scalar ErlangenLTE.eNodeB66.x2App[3].client 	rcvdPk:sum(packetBytes) 	0
attr interpolationmode  none
attr source  rcvdPk
attr title  "packets received, sum(packetBytes)"
scalar ErlangenLTE.eNodeB66.x2App[3].client 	sentPk:count 	0
attr interpolationmode  none
attr source  sentPk
attr title  "packets sent, count"
scalar ErlangenLTE.eNodeB66.x2App[3].client 	sentPk:sum(packetBytes) 	0
attr interpolationmode  none
attr source  sentPk
attr title  "packets sent, sum(packetBytes)"
