file 142404 1547738054                                          
version 2
run General-0-20190117-12:21:48-5411
attr configname General
attr datetime 20190117-12:21:48
attr experiment General
attr inifile omnetpp.ini
attr iterationvars $numUEs=10
attr iterationvarsf numUEs=10-
attr measurement $numUEs=10
attr network ErlangenLTE
attr numUEs 10
attr processid 5411
attr repetition 0
attr replication #0
attr resultdir results
attr runnumber 0
attr seedset 0
param **.broadcastMessageInterval 0.5s
param **.car[*].macCellId 1
param **.car[*].masterId 1
param **.channelControl.alpha 1.0
param **.channelControl.carrierFrequency 2100e+6Hz
param **.channelControl.pMax 10W
param **.coreDebug false
param **.deployer.antennaCws "\"2;\""
param **.deployer.numRbDl 25
param **.deployer.numRbUl 25
param **.deployer.positionUpdateInterval 0.001s
param **.deployer.ruRange 50
param **.deployer.ruTxPower "\"50,50,50;\""
param **.dynamicCellAssociation true
param **.eNodeB*.mobility.constraintAreaMaxX 2500m
param **.eNodeB*.mobility.constraintAreaMaxY 2500m
param **.eNodeB*.mobility.constraintAreaMaxZ 0m
param **.eNodeB*.mobility.constraintAreaMinX 0m
param **.eNodeB*.mobility.constraintAreaMinY 0m
param **.eNodeB*.mobility.constraintAreaMinZ 0m
param **.eNodeB*.mobility.initFromDisplayString true
param **.eNodeB1.macCellId 1
param **.eNodeB1.macNodeId 1
param **.eNodeB10.macCellId 10
param **.eNodeB10.macNodeId 10
param **.eNodeB11.macCellId 11
param **.eNodeB11.macNodeId 11
param **.eNodeB12.macCellId 12
param **.eNodeB12.macNodeId 12
param **.eNodeB13.macCellId 13
param **.eNodeB13.macNodeId 13
param **.eNodeB14.macCellId 14
param **.eNodeB14.macNodeId 14
param **.eNodeB15.macCellId 15
param **.eNodeB15.macNodeId 15
param **.eNodeB16.macCellId 16
param **.eNodeB16.macNodeId 16
param **.eNodeB17.macCellId 17
param **.eNodeB17.macNodeId 17
param **.eNodeB18.macCellId 18
param **.eNodeB18.macNodeId 18
param **.eNodeB19.macCellId 19
param **.eNodeB19.macNodeId 19
param **.eNodeB2.macCellId 2
param **.eNodeB2.macNodeId 2
param **.eNodeB20.macCellId 20
param **.eNodeB20.macNodeId 20
param **.eNodeB21.macCellId 21
param **.eNodeB21.macNodeId 21
param **.eNodeB22.macCellId 22
param **.eNodeB22.macNodeId 22
param **.eNodeB23.macCellId 23
param **.eNodeB23.macNodeId 23
param **.eNodeB24.macCellId 24
param **.eNodeB24.macNodeId 24
param **.eNodeB25.macCellId 25
param **.eNodeB25.macNodeId 25
param **.eNodeB26.macCellId 26
param **.eNodeB26.macNodeId 26
param **.eNodeB27.macCellId 27
param **.eNodeB27.macNodeId 27
param **.eNodeB28.macCellId 28
param **.eNodeB28.macNodeId 28
param **.eNodeB29.macCellId 29
param **.eNodeB29.macNodeId 29
param **.eNodeB3.macCellId 3
param **.eNodeB3.macNodeId 3
param **.eNodeB30.macCellId 30
param **.eNodeB30.macNodeId 30
param **.eNodeB31.macCellId 31
param **.eNodeB31.macNodeId 31
param **.eNodeB32.macCellId 32
param **.eNodeB32.macNodeId 32
param **.eNodeB33.macCellId 33
param **.eNodeB33.macNodeId 33
param **.eNodeB34.macCellId 34
param **.eNodeB34.macNodeId 34
param **.eNodeB35.macCellId 35
param **.eNodeB35.macNodeId 35
param **.eNodeB36.macCellId 36
param **.eNodeB36.macNodeId 36
param **.eNodeB37.macCellId 37
param **.eNodeB37.macNodeId 37
param **.eNodeB38.macCellId 38
param **.eNodeB38.macNodeId 38
param **.eNodeB39.macCellId 39
param **.eNodeB39.macNodeId 39
param **.eNodeB4.macCellId 4
param **.eNodeB4.macNodeId 4
param **.eNodeB40.macCellId 40
param **.eNodeB40.macNodeId 40
param **.eNodeB41.macCellId 41
param **.eNodeB41.macNodeId 41
param **.eNodeB42.macCellId 42
param **.eNodeB42.macNodeId 42
param **.eNodeB43.macCellId 43
param **.eNodeB43.macNodeId 43
param **.eNodeB44.macCellId 44
param **.eNodeB44.macNodeId 44
param **.eNodeB45.macCellId 45
param **.eNodeB45.macNodeId 45
param **.eNodeB46.macCellId 46
param **.eNodeB46.macNodeId 46
param **.eNodeB47.macCellId 47
param **.eNodeB47.macNodeId 47
param **.eNodeB48.macCellId 48
param **.eNodeB48.macNodeId 48
param **.eNodeB49.macCellId 49
param **.eNodeB49.macNodeId 49
param **.eNodeB5.macCellId 5
param **.eNodeB5.macNodeId 5
param **.eNodeB50.macCellId 50
param **.eNodeB50.macNodeId 50
param **.eNodeB51.macCellId 51
param **.eNodeB51.macNodeId 51
param **.eNodeB52.macCellId 52
param **.eNodeB52.macNodeId 52
param **.eNodeB53.macCellId 53
param **.eNodeB53.macNodeId 53
param **.eNodeB54.macCellId 54
param **.eNodeB54.macNodeId 54
param **.eNodeB55.macCellId 55
param **.eNodeB55.macNodeId 55
param **.eNodeB56.macCellId 56
param **.eNodeB56.macNodeId 56
param **.eNodeB57.macCellId 57
param **.eNodeB57.macNodeId 57
param **.eNodeB58.macCellId 58
param **.eNodeB58.macNodeId 58
param **.eNodeB59.macCellId 59
param **.eNodeB59.macNodeId 59
param **.eNodeB6.macCellId 6
param **.eNodeB6.macNodeId 6
param **.eNodeB60.macCellId 60
param **.eNodeB60.macNodeId 60
param **.eNodeB61.macCellId 61
param **.eNodeB61.macNodeId 61
param **.eNodeB62.macCellId 62
param **.eNodeB62.macNodeId 62
param **.eNodeB63.macCellId 63
param **.eNodeB63.macNodeId 63
param **.eNodeB64.macCellId 64
param **.eNodeB64.macNodeId 64
param **.eNodeB65.macCellId 65
param **.eNodeB65.macNodeId 65
param **.eNodeB66.macCellId 66
param **.eNodeB66.macNodeId 66
param **.eNodeB7.macCellId 7
param **.eNodeB7.macNodeId 7
param **.eNodeB8.macCellId 8
param **.eNodeB8.macNodeId 8
param **.eNodeB9.macCellId 9
param **.eNodeB9.macNodeId 9
param **.eNodeBCount 66
param **.enableHandover true
param **.fbDelay 1
param **.feedbackComputation "xmldoc(\"config_channel.xml\")"
param **.feedbackGeneratorType "\"IDEAL\""
param **.feedbackType "\"ALLBANDS\""
param **.lteNic.phy.channelModel "xmldoc(\"config_channel.xml\")"
param **.maxHarqRtx 3
param **.numBands 25
param **.numUe 10
param **.rbAllocationType "\"localized\""
param **.routingRecorder.enabled false
param **.sctp.enableHeartbeats false
param **.sctp.nagleEnabled false
param *.annotations.draw true
param *.car[*].configurator.mcastGroups "\"224.0.0.10\""
param *.car[*].mobilityType "\"VeinsInetMobility\""
param *.eNodeB*.x2App[*].server.localPort "5000 + ancestorIndex(1)"
param *.eNodeB1.numX2Apps 5
param *.eNodeB1.x2App[0].client.connectAddress "\"eNodeB22%x2ppp0\""
param *.eNodeB1.x2App[1].client.connectAddress "\"eNodeB41%x2ppp0\""
param *.eNodeB1.x2App[2].client.connectAddress "\"eNodeB50%x2ppp0\""
param *.eNodeB1.x2App[3].client.connectAddress "\"eNodeB14%x2ppp0\""
param *.eNodeB1.x2App[4].client.connectAddress "\"eNodeB43%x2ppp0\""
param *.eNodeB10.numX2Apps 5
param *.eNodeB10.x2App[0].client.connectAddress "\"eNodeB13%x2ppp1\""
param *.eNodeB10.x2App[1].client.connectAddress "\"eNodeB57%x2ppp0\""
param *.eNodeB10.x2App[2].client.connectAddress "\"eNodeB63%x2ppp0\""
param *.eNodeB10.x2App[3].client.connectAddress "\"eNodeB47%x2ppp2\""
param *.eNodeB10.x2App[4].client.connectAddress "\"eNodeB64%x2ppp0\""
param *.eNodeB11.numX2Apps 3
param *.eNodeB11.x2App[0].client.connectAddress "\"eNodeB22%x2ppp1\""
param *.eNodeB11.x2App[1].client.connectAddress "\"eNodeB40%x2ppp0\""
param *.eNodeB11.x2App[2].client.connectAddress "\"eNodeB54%x2ppp0\""
param *.eNodeB12.numX2Apps 3
param *.eNodeB12.x2App[0].client.connectAddress "\"eNodeB3%x2ppp0\""
param *.eNodeB12.x2App[1].client.connectAddress "\"eNodeB30%x2ppp1\""
param *.eNodeB12.x2App[2].client.connectAddress "\"eNodeB62%x2ppp1\""
param *.eNodeB13.numX2Apps 7
param *.eNodeB13.x2App[0].client.connectAddress "\"eNodeB8%x2ppp1\""
param *.eNodeB13.x2App[1].client.connectAddress "\"eNodeB10%x2ppp0\""
param *.eNodeB13.x2App[2].client.connectAddress "\"eNodeB31%x2ppp1\""
param *.eNodeB13.x2App[3].client.connectAddress "\"eNodeB63%x2ppp1\""
param *.eNodeB13.x2App[4].client.connectAddress "\"eNodeB35%x2ppp0\""
param *.eNodeB13.x2App[5].client.connectAddress "\"eNodeB47%x2ppp3\""
param *.eNodeB13.x2App[6].client.connectAddress "\"eNodeB57%x2ppp1\""
param *.eNodeB14.numX2Apps 4
param *.eNodeB14.x2App[0].client.connectAddress "\"eNodeB1%x2ppp0\""
param *.eNodeB14.x2App[1].client.connectAddress "\"eNodeB41%x2ppp1\""
param *.eNodeB14.x2App[2].client.connectAddress "\"eNodeB66%x2ppp0\""
param *.eNodeB14.x2App[3].client.connectAddress "\"eNodeB22%x2ppp2\""
param *.eNodeB15.numX2Apps 4
param *.eNodeB15.x2App[0].client.connectAddress "\"eNodeB28%x2ppp0\""
param *.eNodeB15.x2App[1].client.connectAddress "\"eNodeB60%x2ppp0\""
param *.eNodeB15.x2App[2].client.connectAddress "\"eNodeB64%x2ppp1\""
param *.eNodeB15.x2App[3].client.connectAddress "\"eNodeB16%x2ppp0\""
param *.eNodeB16.numX2Apps 3
param *.eNodeB16.x2App[0].client.connectAddress "\"eNodeB15%x2ppp0\""
param *.eNodeB16.x2App[1].client.connectAddress "\"eNodeB59%x2ppp0\""
param *.eNodeB16.x2App[2].client.connectAddress "\"eNodeB61%x2ppp0\""
param *.eNodeB17.numX2Apps 4
param *.eNodeB17.x2App[0].client.connectAddress "\"eNodeB4%x2ppp0\""
param *.eNodeB17.x2App[1].client.connectAddress "\"eNodeB20%x2ppp1\""
param *.eNodeB17.x2App[2].client.connectAddress "\"eNodeB49%x2ppp1\""
param *.eNodeB17.x2App[3].client.connectAddress "\"eNodeB56%x2ppp0\""
param *.eNodeB18.numX2Apps 3
param *.eNodeB18.x2App[0].client.connectAddress "\"eNodeB19%x2ppp0\""
param *.eNodeB18.x2App[1].client.connectAddress "\"eNodeB40%x2ppp1\""
param *.eNodeB18.x2App[2].client.connectAddress "\"eNodeB48%x2ppp0\""
param *.eNodeB19.numX2Apps 3
param *.eNodeB19.x2App[0].client.connectAddress "\"eNodeB18%x2ppp0\""
param *.eNodeB19.x2App[1].client.connectAddress "\"eNodeB35%x2ppp1\""
param *.eNodeB19.x2App[2].client.connectAddress "\"eNodeB48%x2ppp1\""
param *.eNodeB2.numX2Apps 3
param *.eNodeB2.x2App[0].client.connectAddress "\"eNodeB5%x2ppp0\""
param *.eNodeB2.x2App[1].client.connectAddress "\"eNodeB7%x2ppp0\""
param *.eNodeB2.x2App[2].client.connectAddress "\"eNodeB32%x2ppp0\""
param *.eNodeB20.numX2Apps 4
param *.eNodeB20.x2App[0].client.connectAddress "\"eNodeB4%x2ppp1\""
param *.eNodeB20.x2App[1].client.connectAddress "\"eNodeB17%x2ppp1\""
param *.eNodeB20.x2App[2].client.connectAddress "\"eNodeB49%x2ppp2\""
param *.eNodeB20.x2App[3].client.connectAddress "\"eNodeB55%x2ppp1\""
param *.eNodeB21.numX2Apps 3
param *.eNodeB21.x2App[0].client.connectAddress "\"eNodeB23%x2ppp0\""
param *.eNodeB21.x2App[1].client.connectAddress "\"eNodeB36%x2ppp0\""
param *.eNodeB21.x2App[2].client.connectAddress "\"eNodeB38%x2ppp0\""
param *.eNodeB22.numX2Apps 6
param *.eNodeB22.x2App[0].client.connectAddress "\"eNodeB1%x2ppp1\""
param *.eNodeB22.x2App[1].client.connectAddress "\"eNodeB11%x2ppp0\""
param *.eNodeB22.x2App[2].client.connectAddress "\"eNodeB14%x2ppp1\""
param *.eNodeB22.x2App[3].client.connectAddress "\"eNodeB54%x2ppp1\""
param *.eNodeB22.x2App[4].client.connectAddress "\"eNodeB43%x2ppp1\""
param *.eNodeB22.x2App[5].client.connectAddress "\"eNodeB66%x2ppp1\""
param *.eNodeB23.numX2Apps 4
param *.eNodeB23.x2App[0].client.connectAddress "\"eNodeB21%x2ppp0\""
param *.eNodeB23.x2App[1].client.connectAddress "\"eNodeB36%x2ppp1\""
param *.eNodeB23.x2App[2].client.connectAddress "\"eNodeB38%x2ppp1\""
param *.eNodeB23.x2App[3].client.connectAddress "\"eNodeB44%x2ppp0\""
param *.eNodeB24.numX2Apps 4
param *.eNodeB24.x2App[0].client.connectAddress "\"eNodeB59%x2ppp1\""
param *.eNodeB24.x2App[1].client.connectAddress "\"eNodeB60%x2ppp1\""
param *.eNodeB24.x2App[2].client.connectAddress "\"eNodeB65%x2ppp0\""
param *.eNodeB24.x2App[3].client.connectAddress "\"eNodeB39%x2ppp0\""
param *.eNodeB25.numX2Apps 3
param *.eNodeB25.x2App[0].client.connectAddress "\"eNodeB5%x2ppp1\""
param *.eNodeB25.x2App[1].client.connectAddress "\"eNodeB46%x2ppp1\""
param *.eNodeB25.x2App[2].client.connectAddress "\"eNodeB52%x2ppp0\""
param *.eNodeB26.numX2Apps 3
param *.eNodeB26.x2App[0].client.connectAddress "\"eNodeB39%x2ppp1\""
param *.eNodeB26.x2App[1].client.connectAddress "\"eNodeB59%x2ppp2\""
param *.eNodeB26.x2App[2].client.connectAddress "\"eNodeB61%x2ppp1\""
param *.eNodeB27.numX2Apps 3
param *.eNodeB27.x2App[0].client.connectAddress "\"eNodeB9%x2ppp0\""
param *.eNodeB27.x2App[1].client.connectAddress "\"eNodeB34%x2ppp2\""
param *.eNodeB27.x2App[2].client.connectAddress "\"eNodeB58%x2ppp1\""
param *.eNodeB28.numX2Apps 4
param *.eNodeB28.x2App[0].client.connectAddress "\"eNodeB15%x2ppp1\""
param *.eNodeB28.x2App[1].client.connectAddress "\"eNodeB60%x2ppp2\""
param *.eNodeB28.x2App[2].client.connectAddress "\"eNodeB64%x2ppp2\""
param *.eNodeB28.x2App[3].client.connectAddress "\"eNodeB65%x2ppp1\""
param *.eNodeB29.numX2Apps 3
param *.eNodeB29.x2App[0].client.connectAddress "\"eNodeB51%x2ppp0\""
param *.eNodeB29.x2App[1].client.connectAddress "\"eNodeB52%x2ppp1\""
param *.eNodeB29.x2App[2].client.connectAddress "\"eNodeB53%x2ppp0\""
param *.eNodeB3.numX2Apps 6
param *.eNodeB3.x2App[0].client.connectAddress "\"eNodeB12%x2ppp0\""
param *.eNodeB3.x2App[1].client.connectAddress "\"eNodeB46%x2ppp0\""
param *.eNodeB3.x2App[2].client.connectAddress "\"eNodeB62%x2ppp0\""
param *.eNodeB3.x2App[3].client.connectAddress "\"eNodeB30%x2ppp0\""
param *.eNodeB3.x2App[4].client.connectAddress "\"eNodeB32%x2ppp1\""
param *.eNodeB3.x2App[5].client.connectAddress "\"eNodeB55%x2ppp0\""
param *.eNodeB30.numX2Apps 4
param *.eNodeB30.x2App[0].client.connectAddress "\"eNodeB12%x2ppp1\""
param *.eNodeB30.x2App[1].client.connectAddress "\"eNodeB3%x2ppp1\""
param *.eNodeB30.x2App[2].client.connectAddress "\"eNodeB32%x2ppp2\""
param *.eNodeB30.x2App[3].client.connectAddress "\"eNodeB62%x2ppp2\""
param *.eNodeB31.numX2Apps 4
param *.eNodeB31.x2App[0].client.connectAddress "\"eNodeB8%x2ppp2\""
param *.eNodeB31.x2App[1].client.connectAddress "\"eNodeB13%x2ppp2\""
param *.eNodeB31.x2App[2].client.connectAddress "\"eNodeB63%x2ppp2\""
param *.eNodeB31.x2App[3].client.connectAddress "\"eNodeB35%x2ppp2\""
param *.eNodeB32.numX2Apps 4
param *.eNodeB32.x2App[0].client.connectAddress "\"eNodeB2%x2ppp2\""
param *.eNodeB32.x2App[1].client.connectAddress "\"eNodeB30%x2ppp2\""
param *.eNodeB32.x2App[2].client.connectAddress "\"eNodeB3%x2ppp2\""
param *.eNodeB32.x2App[3].client.connectAddress "\"eNodeB46%x2ppp2\""
param *.eNodeB33.numX2Apps 3
param *.eNodeB33.x2App[0].client.connectAddress "\"eNodeB6%x2ppp0\""
param *.eNodeB33.x2App[1].client.connectAddress "\"eNodeB45%x2ppp1\""
param *.eNodeB33.x2App[2].client.connectAddress "\"eNodeB51%x2ppp1\""
param *.eNodeB34.numX2Apps 4
param *.eNodeB34.x2App[0].client.connectAddress "\"eNodeB5%x2ppp2\""
param *.eNodeB34.x2App[1].client.connectAddress "\"eNodeB9%x2ppp1\""
param *.eNodeB34.x2App[2].client.connectAddress "\"eNodeB27%x2ppp1\""
param *.eNodeB34.x2App[3].client.connectAddress "\"eNodeB53%x2ppp1\""
param *.eNodeB35.numX2Apps 4
param *.eNodeB35.x2App[0].client.connectAddress "\"eNodeB19%x2ppp1\""
param *.eNodeB35.x2App[1].client.connectAddress "\"eNodeB13%x2ppp3\""
param *.eNodeB35.x2App[2].client.connectAddress "\"eNodeB31%x2ppp2\""
param *.eNodeB35.x2App[3].client.connectAddress "\"eNodeB63%x2ppp3\""
param *.eNodeB36.numX2Apps 4
param *.eNodeB36.x2App[0].client.connectAddress "\"eNodeB21%x2ppp1\""
param *.eNodeB36.x2App[1].client.connectAddress "\"eNodeB23%x2ppp1\""
param *.eNodeB36.x2App[2].client.connectAddress "\"eNodeB38%x2ppp2\""
param *.eNodeB36.x2App[3].client.connectAddress "\"eNodeB44%x2ppp1\""
param *.eNodeB37.numX2Apps 4
param *.eNodeB37.x2App[0].client.connectAddress "\"eNodeB6%x2ppp1\""
param *.eNodeB37.x2App[1].client.connectAddress "\"eNodeB42%x2ppp1\""
param *.eNodeB37.x2App[2].client.connectAddress "\"eNodeB45%x2ppp2\""
param *.eNodeB37.x2App[3].client.connectAddress "\"eNodeB50%x2ppp2\""
param *.eNodeB38.numX2Apps 4
param *.eNodeB38.x2App[0].client.connectAddress "\"eNodeB21%x2ppp2\""
param *.eNodeB38.x2App[1].client.connectAddress "\"eNodeB23%x2ppp2\""
param *.eNodeB38.x2App[2].client.connectAddress "\"eNodeB36%x2ppp2\""
param *.eNodeB38.x2App[3].client.connectAddress "\"eNodeB44%x2ppp2\""
param *.eNodeB39.numX2Apps 4
param *.eNodeB39.x2App[0].client.connectAddress "\"eNodeB26%x2ppp0\""
param *.eNodeB39.x2App[1].client.connectAddress "\"eNodeB24%x2ppp0\""
param *.eNodeB39.x2App[2].client.connectAddress "\"eNodeB59%x2ppp3\""
param *.eNodeB39.x2App[3].client.connectAddress "\"eNodeB61%x2ppp2\""
param *.eNodeB4.numX2Apps 3
param *.eNodeB4.x2App[0].client.connectAddress "\"eNodeB17%x2ppp0\""
param *.eNodeB4.x2App[1].client.connectAddress "\"eNodeB20%x2ppp0\""
param *.eNodeB4.x2App[2].client.connectAddress "\"eNodeB49%x2ppp0\""
param *.eNodeB40.numX2Apps 4
param *.eNodeB40.x2App[0].client.connectAddress "\"eNodeB11%x2ppp1\""
param *.eNodeB40.x2App[1].client.connectAddress "\"eNodeB18%x2ppp1\""
param *.eNodeB40.x2App[2].client.connectAddress "\"eNodeB54%x2ppp2\""
param *.eNodeB40.x2App[3].client.connectAddress "\"eNodeB48%x2ppp2\""
param *.eNodeB41.numX2Apps 4
param *.eNodeB41.x2App[0].client.connectAddress "\"eNodeB1%x2ppp2\""
param *.eNodeB41.x2App[1].client.connectAddress "\"eNodeB14%x2ppp2\""
param *.eNodeB41.x2App[2].client.connectAddress "\"eNodeB50%x2ppp3\""
param *.eNodeB41.x2App[3].client.connectAddress "\"eNodeB66%x2ppp2\""
param *.eNodeB42.numX2Apps 3
param *.eNodeB42.x2App[0].client.connectAddress "\"eNodeB37%x2ppp1\""
param *.eNodeB42.x2App[1].client.connectAddress "\"eNodeB6%x2ppp2\""
param *.eNodeB42.x2App[2].client.connectAddress "\"eNodeB50%x2ppp4\""
param *.eNodeB43.numX2Apps 3
param *.eNodeB43.x2App[0].client.connectAddress "\"eNodeB1%x2ppp3\""
param *.eNodeB43.x2App[1].client.connectAddress "\"eNodeB22%x2ppp3\""
param *.eNodeB43.x2App[2].client.connectAddress "\"eNodeB50%x2ppp5\""
param *.eNodeB44.numX2Apps 3
param *.eNodeB44.x2App[0].client.connectAddress "\"eNodeB23%x2ppp3\""
param *.eNodeB44.x2App[1].client.connectAddress "\"eNodeB36%x2ppp3\""
param *.eNodeB44.x2App[2].client.connectAddress "\"eNodeB38%x2ppp3\""
param *.eNodeB45.numX2Apps 4
param *.eNodeB45.x2App[0].client.connectAddress "\"eNodeB6%x2ppp3\""
param *.eNodeB45.x2App[1].client.connectAddress "\"eNodeB33%x2ppp1\""
param *.eNodeB45.x2App[2].client.connectAddress "\"eNodeB37%x2ppp2\""
param *.eNodeB45.x2App[3].client.connectAddress "\"eNodeB50%x2ppp6\""
param *.eNodeB46.numX2Apps 4
param *.eNodeB46.x2App[0].client.connectAddress "\"eNodeB3%x2ppp3\""
param *.eNodeB46.x2App[1].client.connectAddress "\"eNodeB25%x2ppp1\""
param *.eNodeB46.x2App[2].client.connectAddress "\"eNodeB32%x2ppp3\""
param *.eNodeB46.x2App[3].client.connectAddress "\"eNodeB55%x2ppp2\""
param *.eNodeB47.numX2Apps 4
param *.eNodeB47.x2App[0].client.connectAddress "\"eNodeB7%x2ppp2\""
param *.eNodeB47.x2App[1].client.connectAddress "\"eNodeB8%x2ppp3\""
param *.eNodeB47.x2App[2].client.connectAddress "\"eNodeB10%x2ppp1\""
param *.eNodeB47.x2App[3].client.connectAddress "\"eNodeB13%x2ppp4\""
param *.eNodeB48.numX2Apps 3
param *.eNodeB48.x2App[0].client.connectAddress "\"eNodeB18%x2ppp2\""
param *.eNodeB48.x2App[1].client.connectAddress "\"eNodeB19%x2ppp2\""
param *.eNodeB48.x2App[2].client.connectAddress "\"eNodeB40%x2ppp2\""
param *.eNodeB49.numX2Apps 4
param *.eNodeB49.x2App[0].client.connectAddress "\"eNodeB4%x2ppp2\""
param *.eNodeB49.x2App[1].client.connectAddress "\"eNodeB17%x2ppp2\""
param *.eNodeB49.x2App[2].client.connectAddress "\"eNodeB20%x2ppp2\""
param *.eNodeB49.x2App[3].client.connectAddress "\"eNodeB56%x2ppp1\""
param *.eNodeB5.numX2Apps 3
param *.eNodeB5.x2App[0].client.connectAddress "\"eNodeB2%x2ppp0\""
param *.eNodeB5.x2App[1].client.connectAddress "\"eNodeB25%x2ppp0\""
param *.eNodeB5.x2App[2].client.connectAddress "\"eNodeB34%x2ppp0\""
param *.eNodeB50.numX2Apps 7
param *.eNodeB50.x2App[0].client.connectAddress "\"eNodeB1%x2ppp4\""
param *.eNodeB50.x2App[1].client.connectAddress "\"eNodeB6%x2ppp4\""
param *.eNodeB50.x2App[2].client.connectAddress "\"eNodeB41%x2ppp2\""
param *.eNodeB50.x2App[3].client.connectAddress "\"eNodeB42%x2ppp2\""
param *.eNodeB50.x2App[4].client.connectAddress "\"eNodeB43%x2ppp2\""
param *.eNodeB50.x2App[5].client.connectAddress "\"eNodeB45%x2ppp3\""
param *.eNodeB50.x2App[6].client.connectAddress "\"eNodeB37%x2ppp3\""
param *.eNodeB51.numX2Apps 4
param *.eNodeB51.x2App[0].client.connectAddress "\"eNodeB29%x2ppp0\""
param *.eNodeB51.x2App[1].client.connectAddress "\"eNodeB33%x2ppp2\""
param *.eNodeB51.x2App[2].client.connectAddress "\"eNodeB52%x2ppp2\""
param *.eNodeB51.x2App[3].client.connectAddress "\"eNodeB56%x2ppp2\""
param *.eNodeB52.numX2Apps 4
param *.eNodeB52.x2App[0].client.connectAddress "\"eNodeB25%x2ppp2\""
param *.eNodeB52.x2App[1].client.connectAddress "\"eNodeB29%x2ppp1\""
param *.eNodeB52.x2App[2].client.connectAddress "\"eNodeB51%x2ppp2\""
param *.eNodeB52.x2App[3].client.connectAddress "\"eNodeB53%x2ppp2\""
param *.eNodeB53.numX2Apps 3
param *.eNodeB53.x2App[0].client.connectAddress "\"eNodeB29%x2ppp2\""
param *.eNodeB53.x2App[1].client.connectAddress "\"eNodeB34%x2ppp3\""
param *.eNodeB53.x2App[2].client.connectAddress "\"eNodeB52%x2ppp3\""
param *.eNodeB54.numX2Apps 3
param *.eNodeB54.x2App[0].client.connectAddress "\"eNodeB11%x2ppp2\""
param *.eNodeB54.x2App[1].client.connectAddress "\"eNodeB22%x2ppp4\""
param *.eNodeB54.x2App[2].client.connectAddress "\"eNodeB40%x2ppp3\""
param *.eNodeB55.numX2Apps 3
param *.eNodeB55.x2App[0].client.connectAddress "\"eNodeB46%x2ppp3\""
param *.eNodeB55.x2App[1].client.connectAddress "\"eNodeB3%x2ppp4\""
param *.eNodeB55.x2App[2].client.connectAddress "\"eNodeB20%x2ppp3\""
param *.eNodeB56.numX2Apps 3
param *.eNodeB56.x2App[0].client.connectAddress "\"eNodeB17%x2ppp3\""
param *.eNodeB56.x2App[1].client.connectAddress "\"eNodeB49%x2ppp3\""
param *.eNodeB56.x2App[2].client.connectAddress "\"eNodeB51%x2ppp3\""
param *.eNodeB57.numX2Apps 3
param *.eNodeB57.x2App[0].client.connectAddress "\"eNodeB10%x2ppp2\""
param *.eNodeB57.x2App[1].client.connectAddress "\"eNodeB13%x2ppp5\""
param *.eNodeB57.x2App[2].client.connectAddress "\"eNodeB63%x2ppp4\""
param *.eNodeB58.numX2Apps 3
param *.eNodeB58.x2App[0].client.connectAddress "\"eNodeB9%x2ppp2\""
param *.eNodeB58.x2App[1].client.connectAddress "\"eNodeB27%x2ppp2\""
param *.eNodeB58.x2App[2].client.connectAddress "\"eNodeB66%x2ppp3\""
param *.eNodeB59.numX2Apps 7
param *.eNodeB59.x2App[0].client.connectAddress "\"eNodeB16%x2ppp1\""
param *.eNodeB59.x2App[1].client.connectAddress "\"eNodeB24%x2ppp1\""
param *.eNodeB59.x2App[2].client.connectAddress "\"eNodeB26%x2ppp1\""
param *.eNodeB59.x2App[3].client.connectAddress "\"eNodeB39%x2ppp2\""
param *.eNodeB59.x2App[4].client.connectAddress "\"eNodeB60%x2ppp3\""
param *.eNodeB59.x2App[5].client.connectAddress "\"eNodeB65%x2ppp2\""
param *.eNodeB59.x2App[6].client.connectAddress "\"eNodeB61%x2ppp3\""
param *.eNodeB6.numX2Apps 5
param *.eNodeB6.x2App[0].client.connectAddress "\"eNodeB37%x2ppp0\""
param *.eNodeB6.x2App[1].client.connectAddress "\"eNodeB45%x2ppp0\""
param *.eNodeB6.x2App[2].client.connectAddress "\"eNodeB50%x2ppp1\""
param *.eNodeB6.x2App[3].client.connectAddress "\"eNodeB33%x2ppp0\""
param *.eNodeB6.x2App[4].client.connectAddress "\"eNodeB42%x2ppp0\""
param *.eNodeB60.numX2Apps 5
param *.eNodeB60.x2App[0].client.connectAddress "\"eNodeB15%x2ppp2\""
param *.eNodeB60.x2App[1].client.connectAddress "\"eNodeB24%x2ppp2\""
param *.eNodeB60.x2App[2].client.connectAddress "\"eNodeB28%x2ppp1\""
param *.eNodeB60.x2App[3].client.connectAddress "\"eNodeB59%x2ppp4\""
param *.eNodeB60.x2App[4].client.connectAddress "\"eNodeB65%x2ppp3\""
param *.eNodeB61.numX2Apps 4
param *.eNodeB61.x2App[0].client.connectAddress "\"eNodeB16%x2ppp2\""
param *.eNodeB61.x2App[1].client.connectAddress "\"eNodeB26%x2ppp2\""
param *.eNodeB61.x2App[2].client.connectAddress "\"eNodeB39%x2ppp3\""
param *.eNodeB61.x2App[3].client.connectAddress "\"eNodeB59%x2ppp5\""
param *.eNodeB62.numX2Apps 3
param *.eNodeB62.x2App[0].client.connectAddress "\"eNodeB3%x2ppp5\""
param *.eNodeB62.x2App[1].client.connectAddress "\"eNodeB12%x2ppp2\""
param *.eNodeB62.x2App[2].client.connectAddress "\"eNodeB30%x2ppp3\""
param *.eNodeB63.numX2Apps 5
param *.eNodeB63.x2App[0].client.connectAddress "\"eNodeB10%x2ppp3\""
param *.eNodeB63.x2App[1].client.connectAddress "\"eNodeB13%x2ppp6\""
param *.eNodeB63.x2App[2].client.connectAddress "\"eNodeB31%x2ppp3\""
param *.eNodeB63.x2App[3].client.connectAddress "\"eNodeB35%x2ppp3\""
param *.eNodeB63.x2App[4].client.connectAddress "\"eNodeB57%x2ppp2\""
param *.eNodeB64.numX2Apps 3
param *.eNodeB64.x2App[0].client.connectAddress "\"eNodeB15%x2ppp3\""
param *.eNodeB64.x2App[1].client.connectAddress "\"eNodeB28%x2ppp2\""
param *.eNodeB64.x2App[2].client.connectAddress "\"eNodeB10%x2ppp4\""
param *.eNodeB65.numX2Apps 4
param *.eNodeB65.x2App[0].client.connectAddress "\"eNodeB24%x2ppp3\""
param *.eNodeB65.x2App[1].client.connectAddress "\"eNodeB59%x2ppp6\""
param *.eNodeB65.x2App[2].client.connectAddress "\"eNodeB60%x2ppp4\""
param *.eNodeB65.x2App[3].client.connectAddress "\"eNodeB28%x2ppp3\""
param *.eNodeB66.numX2Apps 4
param *.eNodeB66.x2App[0].client.connectAddress "\"eNodeB14%x2ppp3\""
param *.eNodeB66.x2App[1].client.connectAddress "\"eNodeB58%x2ppp2\""
param *.eNodeB66.x2App[2].client.connectAddress "\"eNodeB22%x2ppp5\""
param *.eNodeB66.x2App[3].client.connectAddress "\"eNodeB41%x2ppp3\""
param *.eNodeB7.numX2Apps 3
param *.eNodeB7.x2App[0].client.connectAddress "\"eNodeB2%x2ppp1\""
param *.eNodeB7.x2App[1].client.connectAddress "\"eNodeB8%x2ppp0\""
param *.eNodeB7.x2App[2].client.connectAddress "\"eNodeB47%x2ppp0\""
param *.eNodeB8.numX2Apps 4
param *.eNodeB8.x2App[0].client.connectAddress "\"eNodeB7%x2ppp1\""
param *.eNodeB8.x2App[1].client.connectAddress "\"eNodeB13%x2ppp0\""
param *.eNodeB8.x2App[2].client.connectAddress "\"eNodeB31%x2ppp0\""
param *.eNodeB8.x2App[3].client.connectAddress "\"eNodeB47%x2ppp1\""
param *.eNodeB9.numX2Apps 3
param *.eNodeB9.x2App[0].client.connectAddress "\"eNodeB27%x2ppp0\""
param *.eNodeB9.x2App[1].client.connectAddress "\"eNodeB34%x2ppp1\""
param *.eNodeB9.x2App[2].client.connectAddress "\"eNodeB58%x2ppp0\""
param *.manager.autoShutdown true
param *.manager.host "\"localhost\""
param *.manager.launchConfig "xmldoc(\"erlangen.launchd.xml\")"
param *.manager.port 9999
param *.manager.updateInterval 1s
param *.obstacles.debug false
param *.obstacles.obstacles "xmldoc(\"config.xml\", \"//AnalogueModel[@type='SimpleObstacleShadowing']/obstacles\")"
param *.playgroundSizeX 2600m
param *.playgroundSizeY 2600m
param *.playgroundSizeZ 50m
param *.veinsManager.launchConfig "xmldoc(\"erlangen.launchd.xml\")"
param *.veinsManager.moduleDisplayString "\"\""
param *.veinsManager.moduleName "\"car\""
param *.veinsManager.moduleType "\"lte.corenetwork.nodes.cars.Car\""
param *.veinsManager.updateInterval 0.1s

vector 8  ErlangenLTE.server.ppp[0].queue  queueLength:vector  ETV
attr interpolationmode  sample-hold
attr title  "queue length, vector"
vector 9  ErlangenLTE.server.ppp[0].ppp  txState:vector  ETV
attr interpolationmode  sample-hold
attr title  "tx state, vector"
vector 24  ErlangenLTE.router.ppp[0].queue  queueLength:vector  ETV
attr interpolationmode  sample-hold
attr title  "queue length, vector"
vector 25  ErlangenLTE.router.ppp[0].ppp  txState:vector  ETV
attr interpolationmode  sample-hold
attr title  "tx state, vector"
vector 35  ErlangenLTE.router.ppp[1].queue  queueLength:vector  ETV
attr interpolationmode  sample-hold
attr title  "queue length, vector"
vector 36  ErlangenLTE.router.ppp[1].ppp  txState:vector  ETV
attr interpolationmode  sample-hold
attr title  "tx state, vector"
vector 51  ErlangenLTE.pgw.ppp[0].queue  queueLength:vector  ETV
attr interpolationmode  sample-hold
attr title  "queue length, vector"
vector 52  ErlangenLTE.pgw.ppp[0].ppp  txState:vector  ETV
attr interpolationmode  sample-hold
attr title  "tx state, vector"
vector 62  ErlangenLTE.pgw.ppp[1].queue  queueLength:vector  ETV
attr interpolationmode  sample-hold
attr title  "queue length, vector"
vector 63  ErlangenLTE.pgw.ppp[1].ppp  txState:vector  ETV
attr interpolationmode  sample-hold
attr title  "tx state, vector"
vector 73  ErlangenLTE.pgw.ppp[2].queue  queueLength:vector  ETV
attr interpolationmode  sample-hold
attr title  "queue length, vector"
vector 74  ErlangenLTE.pgw.ppp[2].ppp  txState:vector  ETV
attr interpolationmode  sample-hold
attr title  "tx state, vector"
vector 84  ErlangenLTE.pgw.ppp[3].queue  queueLength:vector  ETV
attr interpolationmode  sample-hold
attr title  "queue length, vector"
vector 85  ErlangenLTE.pgw.ppp[3].ppp  txState:vector  ETV
attr interpolationmode  sample-hold
attr title  "tx state, vector"
vector 95  ErlangenLTE.pgw.ppp[4].queue  queueLength:vector  ETV
attr interpolationmode  sample-hold
attr title  "queue length, vector"
vector 96  ErlangenLTE.pgw.ppp[4].ppp  txState:vector  ETV
attr interpolationmode  sample-hold
attr title  "tx state, vector"
vector 106  ErlangenLTE.pgw.ppp[5].queue  queueLength:vector  ETV
attr interpolationmode  sample-hold
attr title  "queue length, vector"
vector 107  ErlangenLTE.pgw.ppp[5].ppp  txState:vector  ETV
attr interpolationmode  sample-hold
attr title  "tx state, vector"
vector 117  ErlangenLTE.pgw.ppp[6].queue  queueLength:vector  ETV
attr interpolationmode  sample-hold
attr title  "queue length, vector"
vector 118  ErlangenLTE.pgw.ppp[6].ppp  txState:vector  ETV
attr interpolationmode  sample-hold
attr title  "tx state, vector"
vector 128  ErlangenLTE.pgw.ppp[7].queue  queueLength:vector  ETV
attr interpolationmode  sample-hold
attr title  "queue length, vector"
vector 129  ErlangenLTE.pgw.ppp[7].ppp  txState:vector  ETV
attr interpolationmode  sample-hold
attr title  "tx state, vector"
vector 139  ErlangenLTE.pgw.ppp[8].queue  queueLength:vector  ETV
attr interpolationmode  sample-hold
attr title  "queue length, vector"
vector 140  ErlangenLTE.pgw.ppp[8].ppp  txState:vector  ETV
attr interpolationmode  sample-hold
attr title  "tx state, vector"
vector 150  ErlangenLTE.pgw.ppp[9].queue  queueLength:vector  ETV
attr interpolationmode  sample-hold
attr title  "queue length, vector"
vector 151  ErlangenLTE.pgw.ppp[9].ppp  txState:vector  ETV
attr interpolationmode  sample-hold
attr title  "tx state, vector"
vector 161  ErlangenLTE.pgw.ppp[10].queue  queueLength:vector  ETV
attr interpolationmode  sample-hold
attr title  "queue length, vector"
vector 162  ErlangenLTE.pgw.ppp[10].ppp  txState:vector  ETV
attr interpolationmode  sample-hold
attr title  "tx state, vector"
vector 172  ErlangenLTE.pgw.ppp[11].queue  queueLength:vector  ETV
attr interpolationmode  sample-hold
attr title  "queue length, vector"
vector 173  ErlangenLTE.pgw.ppp[11].ppp  txState:vector  ETV
attr interpolationmode  sample-hold
attr title  "tx state, vector"
vector 183  ErlangenLTE.pgw.ppp[12].queue  queueLength:vector  ETV
attr interpolationmode  sample-hold
attr title  "queue length, vector"
vector 184  ErlangenLTE.pgw.ppp[12].ppp  txState:vector  ETV
attr interpolationmode  sample-hold
attr title  "tx state, vector"
vector 194  ErlangenLTE.pgw.ppp[13].queue  queueLength:vector  ETV
attr interpolationmode  sample-hold
attr title  "queue length, vector"
vector 195  ErlangenLTE.pgw.ppp[13].ppp  txState:vector  ETV
attr interpolationmode  sample-hold
attr title  "tx state, vector"
vector 205  ErlangenLTE.pgw.ppp[14].queue  queueLength:vector  ETV
attr interpolationmode  sample-hold
attr title  "queue length, vector"
vector 206  ErlangenLTE.pgw.ppp[14].ppp  txState:vector  ETV
attr interpolationmode  sample-hold
attr title  "tx state, vector"
vector 216  ErlangenLTE.pgw.ppp[15].queue  queueLength:vector  ETV
attr interpolationmode  sample-hold
attr title  "queue length, vector"
vector 217  ErlangenLTE.pgw.ppp[15].ppp  txState:vector  ETV
attr interpolationmode  sample-hold
attr title  "tx state, vector"
vector 227  ErlangenLTE.pgw.ppp[16].queue  queueLength:vector  ETV
attr interpolationmode  sample-hold
attr title  "queue length, vector"
vector 228  ErlangenLTE.pgw.ppp[16].ppp  txState:vector  ETV
attr interpolationmode  sample-hold
attr title  "tx state, vector"
vector 238  ErlangenLTE.pgw.ppp[17].queue  queueLength:vector  ETV
attr interpolationmode  sample-hold
attr title  "queue length, vector"
vector 239  ErlangenLTE.pgw.ppp[17].ppp  txState:vector  ETV
attr interpolationmode  sample-hold
attr title  "tx state, vector"
vector 249  ErlangenLTE.pgw.ppp[18].queue  queueLength:vector  ETV
attr interpolationmode  sample-hold
attr title  "queue length, vector"
vector 250  ErlangenLTE.pgw.ppp[18].ppp  txState:vector  ETV
attr interpolationmode  sample-hold
attr title  "tx state, vector"
vector 260  ErlangenLTE.pgw.ppp[19].queue  queueLength:vector  ETV
attr interpolationmode  sample-hold
attr title  "queue length, vector"
vector 261  ErlangenLTE.pgw.ppp[19].ppp  txState:vector  ETV
attr interpolationmode  sample-hold
attr title  "tx state, vector"
vector 271  ErlangenLTE.pgw.ppp[20].queue  queueLength:vector  ETV
attr interpolationmode  sample-hold
attr title  "queue length, vector"
vector 272  ErlangenLTE.pgw.ppp[20].ppp  txState:vector  ETV
attr interpolationmode  sample-hold
attr title  "tx state, vector"
vector 282  ErlangenLTE.pgw.ppp[21].queue  queueLength:vector  ETV
attr interpolationmode  sample-hold
attr title  "queue length, vector"
vector 283  ErlangenLTE.pgw.ppp[21].ppp  txState:vector  ETV
attr interpolationmode  sample-hold
attr title  "tx state, vector"
vector 293  ErlangenLTE.pgw.ppp[22].queue  queueLength:vector  ETV
attr interpolationmode  sample-hold
attr title  "queue length, vector"
vector 294  ErlangenLTE.pgw.ppp[22].ppp  txState:vector  ETV
attr interpolationmode  sample-hold
attr title  "tx state, vector"
vector 304  ErlangenLTE.pgw.ppp[23].queue  queueLength:vector  ETV
attr interpolationmode  sample-hold
attr title  "queue length, vector"
vector 305  ErlangenLTE.pgw.ppp[23].ppp  txState:vector  ETV
attr interpolationmode  sample-hold
attr title  "tx state, vector"
vector 315  ErlangenLTE.pgw.ppp[24].queue  queueLength:vector  ETV
attr interpolationmode  sample-hold
attr title  "queue length, vector"
vector 316  ErlangenLTE.pgw.ppp[24].ppp  txState:vector  ETV
attr interpolationmode  sample-hold
attr title  "tx state, vector"
vector 326  ErlangenLTE.pgw.ppp[25].queue  queueLength:vector  ETV
attr interpolationmode  sample-hold
attr title  "queue length, vector"
vector 327  ErlangenLTE.pgw.ppp[25].ppp  txState:vector  ETV
attr interpolationmode  sample-hold
attr title  "tx state, vector"
vector 337  ErlangenLTE.pgw.ppp[26].queue  queueLength:vector  ETV
attr interpolationmode  sample-hold
attr title  "queue length, vector"
vector 338  ErlangenLTE.pgw.ppp[26].ppp  txState:vector  ETV
attr interpolationmode  sample-hold
attr title  "tx state, vector"
vector 348  ErlangenLTE.pgw.ppp[27].queue  queueLength:vector  ETV
attr interpolationmode  sample-hold
attr title  "queue length, vector"
vector 349  ErlangenLTE.pgw.ppp[27].ppp  txState:vector  ETV
attr interpolationmode  sample-hold
attr title  "tx state, vector"
vector 359  ErlangenLTE.pgw.ppp[28].queue  queueLength:vector  ETV
attr interpolationmode  sample-hold
attr title  "queue length, vector"
vector 360  ErlangenLTE.pgw.ppp[28].ppp  txState:vector  ETV
attr interpolationmode  sample-hold
attr title  "tx state, vector"
vector 370  ErlangenLTE.pgw.ppp[29].queue  queueLength:vector  ETV
attr interpolationmode  sample-hold
attr title  "queue length, vector"
vector 371  ErlangenLTE.pgw.ppp[29].ppp  txState:vector  ETV
attr interpolationmode  sample-hold
attr title  "tx state, vector"
vector 381  ErlangenLTE.pgw.ppp[30].queue  queueLength:vector  ETV
attr interpolationmode  sample-hold
attr title  "queue length, vector"
vector 382  ErlangenLTE.pgw.ppp[30].ppp  txState:vector  ETV
attr interpolationmode  sample-hold
attr title  "tx state, vector"
vector 392  ErlangenLTE.pgw.ppp[31].queue  queueLength:vector  ETV
attr interpolationmode  sample-hold
attr title  "queue length, vector"
vector 393  ErlangenLTE.pgw.ppp[31].ppp  txState:vector  ETV
attr interpolationmode  sample-hold
attr title  "tx state, vector"
vector 403  ErlangenLTE.pgw.ppp[32].queue  queueLength:vector  ETV
attr interpolationmode  sample-hold
attr title  "queue length, vector"
vector 404  ErlangenLTE.pgw.ppp[32].ppp  txState:vector  ETV
attr interpolationmode  sample-hold
attr title  "tx state, vector"
vector 414  ErlangenLTE.pgw.ppp[33].queue  queueLength:vector  ETV
attr interpolationmode  sample-hold
attr title  "queue length, vector"
vector 415  ErlangenLTE.pgw.ppp[33].ppp  txState:vector  ETV
attr interpolationmode  sample-hold
attr title  "tx state, vector"
vector 425  ErlangenLTE.pgw.ppp[34].queue  queueLength:vector  ETV
attr interpolationmode  sample-hold
attr title  "queue length, vector"
vector 426  ErlangenLTE.pgw.ppp[34].ppp  txState:vector  ETV
attr interpolationmode  sample-hold
attr title  "tx state, vector"
vector 436  ErlangenLTE.pgw.ppp[35].queue  queueLength:vector  ETV
attr interpolationmode  sample-hold
attr title  "queue length, vector"
vector 437  ErlangenLTE.pgw.ppp[35].ppp  txState:vector  ETV
attr interpolationmode  sample-hold
attr title  "tx state, vector"
vector 447  ErlangenLTE.pgw.ppp[36].queue  queueLength:vector  ETV
attr interpolationmode  sample-hold
attr title  "queue length, vector"
vector 448  ErlangenLTE.pgw.ppp[36].ppp  txState:vector  ETV
attr interpolationmode  sample-hold
attr title  "tx state, vector"
vector 458  ErlangenLTE.pgw.ppp[37].queue  queueLength:vector  ETV
attr interpolationmode  sample-hold
attr title  "queue length, vector"
vector 459  ErlangenLTE.pgw.ppp[37].ppp  txState:vector  ETV
attr interpolationmode  sample-hold
attr title  "tx state, vector"
vector 469  ErlangenLTE.pgw.ppp[38].queue  queueLength:vector  ETV
attr interpolationmode  sample-hold
attr title  "queue length, vector"
vector 470  ErlangenLTE.pgw.ppp[38].ppp  txState:vector  ETV
attr interpolationmode  sample-hold
attr title  "tx state, vector"
vector 480  ErlangenLTE.pgw.ppp[39].queue  queueLength:vector  ETV
attr interpolationmode  sample-hold
attr title  "queue length, vector"
vector 481  ErlangenLTE.pgw.ppp[39].ppp  txState:vector  ETV
attr interpolationmode  sample-hold
attr title  "tx state, vector"
vector 491  ErlangenLTE.pgw.ppp[40].queue  queueLength:vector  ETV
attr interpolationmode  sample-hold
attr title  "queue length, vector"
vector 492  ErlangenLTE.pgw.ppp[40].ppp  txState:vector  ETV
attr interpolationmode  sample-hold
attr title  "tx state, vector"
vector 502  ErlangenLTE.pgw.ppp[41].queue  queueLength:vector  ETV
attr interpolationmode  sample-hold
attr title  "queue length, vector"
vector 503  ErlangenLTE.pgw.ppp[41].ppp  txState:vector  ETV
attr interpolationmode  sample-hold
attr title  "tx state, vector"
vector 513  ErlangenLTE.pgw.ppp[42].queue  queueLength:vector  ETV
attr interpolationmode  sample-hold
attr title  "queue length, vector"
vector 514  ErlangenLTE.pgw.ppp[42].ppp  txState:vector  ETV
attr interpolationmode  sample-hold
attr title  "tx state, vector"
vector 524  ErlangenLTE.pgw.ppp[43].queue  queueLength:vector  ETV
attr interpolationmode  sample-hold
attr title  "queue length, vector"
vector 525  ErlangenLTE.pgw.ppp[43].ppp  txState:vector  ETV
attr interpolationmode  sample-hold
attr title  "tx state, vector"
vector 535  ErlangenLTE.pgw.ppp[44].queue  queueLength:vector  ETV
attr interpolationmode  sample-hold
attr title  "queue length, vector"
vector 536  ErlangenLTE.pgw.ppp[44].ppp  txState:vector  ETV
attr interpolationmode  sample-hold
attr title  "tx state, vector"
vector 546  ErlangenLTE.pgw.ppp[45].queue  queueLength:vector  ETV
attr interpolationmode  sample-hold
attr title  "queue length, vector"
vector 547  ErlangenLTE.pgw.ppp[45].ppp  txState:vector  ETV
attr interpolationmode  sample-hold
attr title  "tx state, vector"
vector 557  ErlangenLTE.pgw.ppp[46].queue  queueLength:vector  ETV
attr interpolationmode  sample-hold
attr title  "queue length, vector"
vector 558  ErlangenLTE.pgw.ppp[46].ppp  txState:vector  ETV
attr interpolationmode  sample-hold
attr title  "tx state, vector"
vector 568  ErlangenLTE.pgw.ppp[47].queue  queueLength:vector  ETV
attr interpolationmode  sample-hold
attr title  "queue length, vector"
vector 569  ErlangenLTE.pgw.ppp[47].ppp  txState:vector  ETV
attr interpolationmode  sample-hold
attr title  "tx state, vector"
vector 579  ErlangenLTE.pgw.ppp[48].queue  queueLength:vector  ETV
attr interpolationmode  sample-hold
attr title  "queue length, vector"
vector 580  ErlangenLTE.pgw.ppp[48].ppp  txState:vector  ETV
attr interpolationmode  sample-hold
attr title  "tx state, vector"
vector 590  ErlangenLTE.pgw.ppp[49].queue  queueLength:vector  ETV
attr interpolationmode  sample-hold
attr title  "queue length, vector"
vector 591  ErlangenLTE.pgw.ppp[49].ppp  txState:vector  ETV
attr interpolationmode  sample-hold
attr title  "tx state, vector"
vector 601  ErlangenLTE.pgw.ppp[50].queue  queueLength:vector  ETV
attr interpolationmode  sample-hold
attr title  "queue length, vector"
vector 602  ErlangenLTE.pgw.ppp[50].ppp  txState:vector  ETV
attr interpolationmode  sample-hold
attr title  "tx state, vector"
vector 612  ErlangenLTE.pgw.ppp[51].queue  queueLength:vector  ETV
attr interpolationmode  sample-hold
attr title  "queue length, vector"
vector 613  ErlangenLTE.pgw.ppp[51].ppp  txState:vector  ETV
attr interpolationmode  sample-hold
attr title  "tx state, vector"
vector 623  ErlangenLTE.pgw.ppp[52].queue  queueLength:vector  ETV
attr interpolationmode  sample-hold
attr title  "queue length, vector"
vector 624  ErlangenLTE.pgw.ppp[52].ppp  txState:vector  ETV
attr interpolationmode  sample-hold
attr title  "tx state, vector"
vector 634  ErlangenLTE.pgw.ppp[53].queue  queueLength:vector  ETV
attr interpolationmode  sample-hold
attr title  "queue length, vector"
vector 635  ErlangenLTE.pgw.ppp[53].ppp  txState:vector  ETV
attr interpolationmode  sample-hold
attr title  "tx state, vector"
vector 645  ErlangenLTE.pgw.ppp[54].queue  queueLength:vector  ETV
attr interpolationmode  sample-hold
attr title  "queue length, vector"
vector 646  ErlangenLTE.pgw.ppp[54].ppp  txState:vector  ETV
attr interpolationmode  sample-hold
attr title  "tx state, vector"
vector 656  ErlangenLTE.pgw.ppp[55].queue  queueLength:vector  ETV
attr interpolationmode  sample-hold
attr title  "queue length, vector"
vector 657  ErlangenLTE.pgw.ppp[55].ppp  txState:vector  ETV
attr interpolationmode  sample-hold
attr title  "tx state, vector"
vector 667  ErlangenLTE.pgw.ppp[56].queue  queueLength:vector  ETV
attr interpolationmode  sample-hold
attr title  "queue length, vector"
vector 668  ErlangenLTE.pgw.ppp[56].ppp  txState:vector  ETV
attr interpolationmode  sample-hold
attr title  "tx state, vector"
vector 678  ErlangenLTE.pgw.ppp[57].queue  queueLength:vector  ETV
attr interpolationmode  sample-hold
attr title  "queue length, vector"
vector 679  ErlangenLTE.pgw.ppp[57].ppp  txState:vector  ETV
attr interpolationmode  sample-hold
attr title  "tx state, vector"
vector 689  ErlangenLTE.pgw.ppp[58].queue  queueLength:vector  ETV
attr interpolationmode  sample-hold
attr title  "queue length, vector"
vector 690  ErlangenLTE.pgw.ppp[58].ppp  txState:vector  ETV
attr interpolationmode  sample-hold
attr title  "tx state, vector"
vector 700  ErlangenLTE.pgw.ppp[59].queue  queueLength:vector  ETV
attr interpolationmode  sample-hold
attr title  "queue length, vector"
vector 701  ErlangenLTE.pgw.ppp[59].ppp  txState:vector  ETV
attr interpolationmode  sample-hold
attr title  "tx state, vector"
vector 711  ErlangenLTE.pgw.ppp[60].queue  queueLength:vector  ETV
attr interpolationmode  sample-hold
attr title  "queue length, vector"
vector 712  ErlangenLTE.pgw.ppp[60].ppp  txState:vector  ETV
attr interpolationmode  sample-hold
attr title  "tx state, vector"
vector 722  ErlangenLTE.pgw.ppp[61].queue  queueLength:vector  ETV
attr interpolationmode  sample-hold
attr title  "queue length, vector"
vector 723  ErlangenLTE.pgw.ppp[61].ppp  txState:vector  ETV
attr interpolationmode  sample-hold
attr title  "tx state, vector"
vector 733  ErlangenLTE.pgw.ppp[62].queue  queueLength:vector  ETV
attr interpolationmode  sample-hold
attr title  "queue length, vector"
vector 734  ErlangenLTE.pgw.ppp[62].ppp  txState:vector  ETV
attr interpolationmode  sample-hold
attr title  "tx state, vector"
vector 744  ErlangenLTE.pgw.ppp[63].queue  queueLength:vector  ETV
attr interpolationmode  sample-hold
attr title  "queue length, vector"
vector 745  ErlangenLTE.pgw.ppp[63].ppp  txState:vector  ETV
attr interpolationmode  sample-hold
attr title  "tx state, vector"
vector 755  ErlangenLTE.pgw.ppp[64].queue  queueLength:vector  ETV
attr interpolationmode  sample-hold
attr title  "queue length, vector"
vector 756  ErlangenLTE.pgw.ppp[64].ppp  txState:vector  ETV
attr interpolationmode  sample-hold
attr title  "tx state, vector"
vector 766  ErlangenLTE.pgw.ppp[65].queue  queueLength:vector  ETV
attr interpolationmode  sample-hold
attr title  "queue length, vector"
vector 767  ErlangenLTE.pgw.ppp[65].ppp  txState:vector  ETV
attr interpolationmode  sample-hold
attr title  "tx state, vector"
vector 777  ErlangenLTE.pgw.pppInterface.queue  queueLength:vector  ETV
attr interpolationmode  sample-hold
attr title  "queue length, vector"
vector 778  ErlangenLTE.pgw.pppInterface.ppp  txState:vector  ETV
attr interpolationmode  sample-hold
attr title  "tx state, vector"
vector 820  ErlangenLTE.eNodeB1.pppIf.queue  queueLength:vector  ETV
attr interpolationmode  sample-hold
attr title  "queue length, vector"
vector 821  ErlangenLTE.eNodeB1.pppIf.ppp  txState:vector  ETV
attr interpolationmode  sample-hold
attr title  "tx state, vector"
vector 831  ErlangenLTE.eNodeB1.x2ppp[0].queue  queueLength:vector  ETV
attr interpolationmode  sample-hold
attr title  "queue length, vector"
vector 832  ErlangenLTE.eNodeB1.x2ppp[0].ppp  txState:vector  ETV
attr interpolationmode  sample-hold
attr title  "tx state, vector"
vector 842  ErlangenLTE.eNodeB1.x2ppp[1].queue  queueLength:vector  ETV
attr interpolationmode  sample-hold
attr title  "queue length, vector"
vector 843  ErlangenLTE.eNodeB1.x2ppp[1].ppp  txState:vector  ETV
attr interpolationmode  sample-hold
attr title  "tx state, vector"
vector 853  ErlangenLTE.eNodeB1.x2ppp[2].queue  queueLength:vector  ETV
attr interpolationmode  sample-hold
attr title  "queue length, vector"
vector 854  ErlangenLTE.eNodeB1.x2ppp[2].ppp  txState:vector  ETV
attr interpolationmode  sample-hold
attr title  "tx state, vector"
vector 864  ErlangenLTE.eNodeB1.x2ppp[3].queue  queueLength:vector  ETV
attr interpolationmode  sample-hold
attr title  "queue length, vector"
vector 865  ErlangenLTE.eNodeB1.x2ppp[3].ppp  txState:vector  ETV
attr interpolationmode  sample-hold
attr title  "tx state, vector"
vector 875  ErlangenLTE.eNodeB1.x2ppp[4].queue  queueLength:vector  ETV
attr interpolationmode  sample-hold
attr title  "queue length, vector"
vector 876  ErlangenLTE.eNodeB1.x2ppp[4].ppp  txState:vector  ETV
attr interpolationmode  sample-hold
attr title  "tx state, vector"
vector 935  ErlangenLTE.eNodeB2.pppIf.queue  queueLength:vector  ETV
attr interpolationmode  sample-hold
attr title  "queue length, vector"
vector 936  ErlangenLTE.eNodeB2.pppIf.ppp  txState:vector  ETV
attr interpolationmode  sample-hold
attr title  "tx state, vector"
vector 946  ErlangenLTE.eNodeB2.x2ppp[0].queue  queueLength:vector  ETV
attr interpolationmode  sample-hold
attr title  "queue length, vector"
vector 947  ErlangenLTE.eNodeB2.x2ppp[0].ppp  txState:vector  ETV
attr interpolationmode  sample-hold
attr title  "tx state, vector"
vector 957  ErlangenLTE.eNodeB2.x2ppp[1].queue  queueLength:vector  ETV
attr interpolationmode  sample-hold
attr title  "queue length, vector"
vector 958  ErlangenLTE.eNodeB2.x2ppp[1].ppp  txState:vector  ETV
attr interpolationmode  sample-hold
attr title  "tx state, vector"
vector 968  ErlangenLTE.eNodeB2.x2ppp[2].queue  queueLength:vector  ETV
attr interpolationmode  sample-hold
attr title  "queue length, vector"
vector 969  ErlangenLTE.eNodeB2.x2ppp[2].ppp  txState:vector  ETV
attr interpolationmode  sample-hold
attr title  "tx state, vector"
vector 1022  ErlangenLTE.eNodeB3.pppIf.queue  queueLength:vector  ETV
attr interpolationmode  sample-hold
attr title  "queue length, vector"
vector 1023  ErlangenLTE.eNodeB3.pppIf.ppp  txState:vector  ETV
attr interpolationmode  sample-hold
attr title  "tx state, vector"
vector 1033  ErlangenLTE.eNodeB3.x2ppp[0].queue  queueLength:vector  ETV
attr interpolationmode  sample-hold
attr title  "queue length, vector"
vector 1034  ErlangenLTE.eNodeB3.x2ppp[0].ppp  txState:vector  ETV
attr interpolationmode  sample-hold
attr title  "tx state, vector"
vector 1044  ErlangenLTE.eNodeB3.x2ppp[1].queue  queueLength:vector  ETV
attr interpolationmode  sample-hold
attr title  "queue length, vector"
vector 1045  ErlangenLTE.eNodeB3.x2ppp[1].ppp  txState:vector  ETV
attr interpolationmode  sample-hold
attr title  "tx state, vector"
vector 1055  ErlangenLTE.eNodeB3.x2ppp[2].queue  queueLength:vector  ETV
attr interpolationmode  sample-hold
attr title  "queue length, vector"
vector 1056  ErlangenLTE.eNodeB3.x2ppp[2].ppp  txState:vector  ETV
attr interpolationmode  sample-hold
attr title  "tx state, vector"
vector 1066  ErlangenLTE.eNodeB3.x2ppp[3].queue  queueLength:vector  ETV
attr interpolationmode  sample-hold
attr title  "queue length, vector"
vector 1067  ErlangenLTE.eNodeB3.x2ppp[3].ppp  txState:vector  ETV
attr interpolationmode  sample-hold
attr title  "tx state, vector"
vector 1077  ErlangenLTE.eNodeB3.x2ppp[4].queue  queueLength:vector  ETV
attr interpolationmode  sample-hold
attr title  "queue length, vector"
vector 1078  ErlangenLTE.eNodeB3.x2ppp[4].ppp  txState:vector  ETV
attr interpolationmode  sample-hold
attr title  "tx state, vector"
vector 1088  ErlangenLTE.eNodeB3.x2ppp[5].queue  queueLength:vector  ETV
attr interpolationmode  sample-hold
attr title  "queue length, vector"
vector 1089  ErlangenLTE.eNodeB3.x2ppp[5].ppp  txState:vector  ETV
attr interpolationmode  sample-hold
attr title  "tx state, vector"
vector 1151  ErlangenLTE.eNodeB4.pppIf.queue  queueLength:vector  ETV
attr interpolationmode  sample-hold
attr title  "queue length, vector"
vector 1152  ErlangenLTE.eNodeB4.pppIf.ppp  txState:vector  ETV
attr interpolationmode  sample-hold
attr title  "tx state, vector"
vector 1162  ErlangenLTE.eNodeB4.x2ppp[0].queue  queueLength:vector  ETV
attr interpolationmode  sample-hold
attr title  "queue length, vector"
vector 1163  ErlangenLTE.eNodeB4.x2ppp[0].ppp  txState:vector  ETV
attr interpolationmode  sample-hold
attr title  "tx state, vector"
vector 1173  ErlangenLTE.eNodeB4.x2ppp[1].queue  queueLength:vector  ETV
attr interpolationmode  sample-hold
attr title  "queue length, vector"
vector 1174  ErlangenLTE.eNodeB4.x2ppp[1].ppp  txState:vector  ETV
attr interpolationmode  sample-hold
attr title  "tx state, vector"
vector 1184  ErlangenLTE.eNodeB4.x2ppp[2].queue  queueLength:vector  ETV
attr interpolationmode  sample-hold
attr title  "queue length, vector"
vector 1185  ErlangenLTE.eNodeB4.x2ppp[2].ppp  txState:vector  ETV
attr interpolationmode  sample-hold
attr title  "tx state, vector"
vector 1238  ErlangenLTE.eNodeB5.pppIf.queue  queueLength:vector  ETV
attr interpolationmode  sample-hold
attr title  "queue length, vector"
vector 1239  ErlangenLTE.eNodeB5.pppIf.ppp  txState:vector  ETV
attr interpolationmode  sample-hold
attr title  "tx state, vector"
vector 1249  ErlangenLTE.eNodeB5.x2ppp[0].queue  queueLength:vector  ETV
attr interpolationmode  sample-hold
attr title  "queue length, vector"
vector 1250  ErlangenLTE.eNodeB5.x2ppp[0].ppp  txState:vector  ETV
attr interpolationmode  sample-hold
attr title  "tx state, vector"
vector 1260  ErlangenLTE.eNodeB5.x2ppp[1].queue  queueLength:vector  ETV
attr interpolationmode  sample-hold
attr title  "queue length, vector"
vector 1261  ErlangenLTE.eNodeB5.x2ppp[1].ppp  txState:vector  ETV
attr interpolationmode  sample-hold
attr title  "tx state, vector"
vector 1271  ErlangenLTE.eNodeB5.x2ppp[2].queue  queueLength:vector  ETV
attr interpolationmode  sample-hold
attr title  "queue length, vector"
vector 1272  ErlangenLTE.eNodeB5.x2ppp[2].ppp  txState:vector  ETV
attr interpolationmode  sample-hold
attr title  "tx state, vector"
vector 1325  ErlangenLTE.eNodeB6.pppIf.queue  queueLength:vector  ETV
attr interpolationmode  sample-hold
attr title  "queue length, vector"
vector 1326  ErlangenLTE.eNodeB6.pppIf.ppp  txState:vector  ETV
attr interpolationmode  sample-hold
attr title  "tx state, vector"
vector 1336  ErlangenLTE.eNodeB6.x2ppp[0].queue  queueLength:vector  ETV
attr interpolationmode  sample-hold
attr title  "queue length, vector"
vector 1337  ErlangenLTE.eNodeB6.x2ppp[0].ppp  txState:vector  ETV
attr interpolationmode  sample-hold
attr title  "tx state, vector"
vector 1347  ErlangenLTE.eNodeB6.x2ppp[1].queue  queueLength:vector  ETV
attr interpolationmode  sample-hold
attr title  "queue length, vector"
vector 1348  ErlangenLTE.eNodeB6.x2ppp[1].ppp  txState:vector  ETV
attr interpolationmode  sample-hold
attr title  "tx state, vector"
vector 1358  ErlangenLTE.eNodeB6.x2ppp[2].queue  queueLength:vector  ETV
attr interpolationmode  sample-hold
attr title  "queue length, vector"
vector 1359  ErlangenLTE.eNodeB6.x2ppp[2].ppp  txState:vector  ETV
attr interpolationmode  sample-hold
attr title  "tx state, vector"
vector 1369  ErlangenLTE.eNodeB6.x2ppp[3].queue  queueLength:vector  ETV
attr interpolationmode  sample-hold
attr title  "queue length, vector"
vector 1370  ErlangenLTE.eNodeB6.x2ppp[3].ppp  txState:vector  ETV
attr interpolationmode  sample-hold
attr title  "tx state, vector"
vector 1380  ErlangenLTE.eNodeB6.x2ppp[4].queue  queueLength:vector  ETV
attr interpolationmode  sample-hold
attr title  "queue length, vector"
vector 1381  ErlangenLTE.eNodeB6.x2ppp[4].ppp  txState:vector  ETV
attr interpolationmode  sample-hold
attr title  "tx state, vector"
vector 1440  ErlangenLTE.eNodeB7.pppIf.queue  queueLength:vector  ETV
attr interpolationmode  sample-hold
attr title  "queue length, vector"
vector 1441  ErlangenLTE.eNodeB7.pppIf.ppp  txState:vector  ETV
attr interpolationmode  sample-hold
attr title  "tx state, vector"
vector 1451  ErlangenLTE.eNodeB7.x2ppp[0].queue  queueLength:vector  ETV
attr interpolationmode  sample-hold
attr title  "queue length, vector"
vector 1452  ErlangenLTE.eNodeB7.x2ppp[0].ppp  txState:vector  ETV
attr interpolationmode  sample-hold
attr title  "tx state, vector"
vector 1462  ErlangenLTE.eNodeB7.x2ppp[1].queue  queueLength:vector  ETV
attr interpolationmode  sample-hold
attr title  "queue length, vector"
vector 1463  ErlangenLTE.eNodeB7.x2ppp[1].ppp  txState:vector  ETV
attr interpolationmode  sample-hold
attr title  "tx state, vector"
vector 1473  ErlangenLTE.eNodeB7.x2ppp[2].queue  queueLength:vector  ETV
attr interpolationmode  sample-hold
attr title  "queue length, vector"
vector 1474  ErlangenLTE.eNodeB7.x2ppp[2].ppp  txState:vector  ETV
attr interpolationmode  sample-hold
attr title  "tx state, vector"
vector 1527  ErlangenLTE.eNodeB8.pppIf.queue  queueLength:vector  ETV
attr interpolationmode  sample-hold
attr title  "queue length, vector"
vector 1528  ErlangenLTE.eNodeB8.pppIf.ppp  txState:vector  ETV
attr interpolationmode  sample-hold
attr title  "tx state, vector"
vector 1538  ErlangenLTE.eNodeB8.x2ppp[0].queue  queueLength:vector  ETV
attr interpolationmode  sample-hold
attr title  "queue length, vector"
vector 1539  ErlangenLTE.eNodeB8.x2ppp[0].ppp  txState:vector  ETV
attr interpolationmode  sample-hold
attr title  "tx state, vector"
vector 1549  ErlangenLTE.eNodeB8.x2ppp[1].queue  queueLength:vector  ETV
attr interpolationmode  sample-hold
attr title  "queue length, vector"
vector 1550  ErlangenLTE.eNodeB8.x2ppp[1].ppp  txState:vector  ETV
attr interpolationmode  sample-hold
attr title  "tx state, vector"
vector 1560  ErlangenLTE.eNodeB8.x2ppp[2].queue  queueLength:vector  ETV
attr interpolationmode  sample-hold
attr title  "queue length, vector"
vector 1561  ErlangenLTE.eNodeB8.x2ppp[2].ppp  txState:vector  ETV
attr interpolationmode  sample-hold
attr title  "tx state, vector"
vector 1571  ErlangenLTE.eNodeB8.x2ppp[3].queue  queueLength:vector  ETV
attr interpolationmode  sample-hold
attr title  "queue length, vector"
vector 1572  ErlangenLTE.eNodeB8.x2ppp[3].ppp  txState:vector  ETV
attr interpolationmode  sample-hold
attr title  "tx state, vector"
vector 1628  ErlangenLTE.eNodeB9.pppIf.queue  queueLength:vector  ETV
attr interpolationmode  sample-hold
attr title  "queue length, vector"
vector 1629  ErlangenLTE.eNodeB9.pppIf.ppp  txState:vector  ETV
attr interpolationmode  sample-hold
attr title  "tx state, vector"
vector 1639  ErlangenLTE.eNodeB9.x2ppp[0].queue  queueLength:vector  ETV
attr interpolationmode  sample-hold
attr title  "queue length, vector"
vector 1640  ErlangenLTE.eNodeB9.x2ppp[0].ppp  txState:vector  ETV
attr interpolationmode  sample-hold
attr title  "tx state, vector"
vector 1650  ErlangenLTE.eNodeB9.x2ppp[1].queue  queueLength:vector  ETV
attr interpolationmode  sample-hold
attr title  "queue length, vector"
vector 1651  ErlangenLTE.eNodeB9.x2ppp[1].ppp  txState:vector  ETV
attr interpolationmode  sample-hold
attr title  "tx state, vector"
vector 1661  ErlangenLTE.eNodeB9.x2ppp[2].queue  queueLength:vector  ETV
attr interpolationmode  sample-hold
attr title  "queue length, vector"
vector 1662  ErlangenLTE.eNodeB9.x2ppp[2].ppp  txState:vector  ETV
attr interpolationmode  sample-hold
attr title  "tx state, vector"
vector 1715  ErlangenLTE.eNodeB10.pppIf.queue  queueLength:vector  ETV
attr interpolationmode  sample-hold
attr title  "queue length, vector"
vector 1716  ErlangenLTE.eNodeB10.pppIf.ppp  txState:vector  ETV
attr interpolationmode  sample-hold
attr title  "tx state, vector"
vector 1726  ErlangenLTE.eNodeB10.x2ppp[0].queue  queueLength:vector  ETV
attr interpolationmode  sample-hold
attr title  "queue length, vector"
vector 1727  ErlangenLTE.eNodeB10.x2ppp[0].ppp  txState:vector  ETV
attr interpolationmode  sample-hold
attr title  "tx state, vector"
vector 1737  ErlangenLTE.eNodeB10.x2ppp[1].queue  queueLength:vector  ETV
attr interpolationmode  sample-hold
attr title  "queue length, vector"
vector 1738  ErlangenLTE.eNodeB10.x2ppp[1].ppp  txState:vector  ETV
attr interpolationmode  sample-hold
attr title  "tx state, vector"
vector 1748  ErlangenLTE.eNodeB10.x2ppp[2].queue  queueLength:vector  ETV
attr interpolationmode  sample-hold
attr title  "queue length, vector"
vector 1749  ErlangenLTE.eNodeB10.x2ppp[2].ppp  txState:vector  ETV
attr interpolationmode  sample-hold
attr title  "tx state, vector"
vector 1759  ErlangenLTE.eNodeB10.x2ppp[3].queue  queueLength:vector  ETV
attr interpolationmode  sample-hold
attr title  "queue length, vector"
vector 1760  ErlangenLTE.eNodeB10.x2ppp[3].ppp  txState:vector  ETV
attr interpolationmode  sample-hold
attr title  "tx state, vector"
vector 1770  ErlangenLTE.eNodeB10.x2ppp[4].queue  queueLength:vector  ETV
attr interpolationmode  sample-hold
attr title  "queue length, vector"
vector 1771  ErlangenLTE.eNodeB10.x2ppp[4].ppp  txState:vector  ETV
attr interpolationmode  sample-hold
attr title  "tx state, vector"
vector 1830  ErlangenLTE.eNodeB11.pppIf.queue  queueLength:vector  ETV
attr interpolationmode  sample-hold
attr title  "queue length, vector"
vector 1831  ErlangenLTE.eNodeB11.pppIf.ppp  txState:vector  ETV
attr interpolationmode  sample-hold
attr title  "tx state, vector"
vector 1841  ErlangenLTE.eNodeB11.x2ppp[0].queue  queueLength:vector  ETV
attr interpolationmode  sample-hold
attr title  "queue length, vector"
vector 1842  ErlangenLTE.eNodeB11.x2ppp[0].ppp  txState:vector  ETV
attr interpolationmode  sample-hold
attr title  "tx state, vector"
vector 1852  ErlangenLTE.eNodeB11.x2ppp[1].queue  queueLength:vector  ETV
attr interpolationmode  sample-hold
attr title  "queue length, vector"
vector 1853  ErlangenLTE.eNodeB11.x2ppp[1].ppp  txState:vector  ETV
attr interpolationmode  sample-hold
attr title  "tx state, vector"
vector 1863  ErlangenLTE.eNodeB11.x2ppp[2].queue  queueLength:vector  ETV
attr interpolationmode  sample-hold
attr title  "queue length, vector"
vector 1864  ErlangenLTE.eNodeB11.x2ppp[2].ppp  txState:vector  ETV
attr interpolationmode  sample-hold
attr title  "tx state, vector"
vector 1917  ErlangenLTE.eNodeB12.pppIf.queue  queueLength:vector  ETV
attr interpolationmode  sample-hold
attr title  "queue length, vector"
vector 1918  ErlangenLTE.eNodeB12.pppIf.ppp  txState:vector  ETV
attr interpolationmode  sample-hold
attr title  "tx state, vector"
vector 1928  ErlangenLTE.eNodeB12.x2ppp[0].queue  queueLength:vector  ETV
attr interpolationmode  sample-hold
attr title  "queue length, vector"
vector 1929  ErlangenLTE.eNodeB12.x2ppp[0].ppp  txState:vector  ETV
attr interpolationmode  sample-hold
attr title  "tx state, vector"
vector 1939  ErlangenLTE.eNodeB12.x2ppp[1].queue  queueLength:vector  ETV
attr interpolationmode  sample-hold
attr title  "queue length, vector"
vector 1940  ErlangenLTE.eNodeB12.x2ppp[1].ppp  txState:vector  ETV
attr interpolationmode  sample-hold
attr title  "tx state, vector"
vector 1950  ErlangenLTE.eNodeB12.x2ppp[2].queue  queueLength:vector  ETV
attr interpolationmode  sample-hold
attr title  "queue length, vector"
vector 1951  ErlangenLTE.eNodeB12.x2ppp[2].ppp  txState:vector  ETV
attr interpolationmode  sample-hold
attr title  "tx state, vector"
vector 2004  ErlangenLTE.eNodeB13.pppIf.queue  queueLength:vector  ETV
attr interpolationmode  sample-hold
attr title  "queue length, vector"
vector 2005  ErlangenLTE.eNodeB13.pppIf.ppp  txState:vector  ETV
attr interpolationmode  sample-hold
attr title  "tx state, vector"
vector 2015  ErlangenLTE.eNodeB13.x2ppp[0].queue  queueLength:vector  ETV
attr interpolationmode  sample-hold
attr title  "queue length, vector"
vector 2016  ErlangenLTE.eNodeB13.x2ppp[0].ppp  txState:vector  ETV
attr interpolationmode  sample-hold
attr title  "tx state, vector"
vector 2026  ErlangenLTE.eNodeB13.x2ppp[1].queue  queueLength:vector  ETV
attr interpolationmode  sample-hold
attr title  "queue length, vector"
vector 2027  ErlangenLTE.eNodeB13.x2ppp[1].ppp  txState:vector  ETV
attr interpolationmode  sample-hold
attr title  "tx state, vector"
vector 2037  ErlangenLTE.eNodeB13.x2ppp[2].queue  queueLength:vector  ETV
attr interpolationmode  sample-hold
attr title  "queue length, vector"
vector 2038  ErlangenLTE.eNodeB13.x2ppp[2].ppp  txState:vector  ETV
attr interpolationmode  sample-hold
attr title  "tx state, vector"
vector 2048  ErlangenLTE.eNodeB13.x2ppp[3].queue  queueLength:vector  ETV
attr interpolationmode  sample-hold
attr title  "queue length, vector"
vector 2049  ErlangenLTE.eNodeB13.x2ppp[3].ppp  txState:vector  ETV
attr interpolationmode  sample-hold
attr title  "tx state, vector"
vector 2059  ErlangenLTE.eNodeB13.x2ppp[4].queue  queueLength:vector  ETV
attr interpolationmode  sample-hold
attr title  "queue length, vector"
vector 2060  ErlangenLTE.eNodeB13.x2ppp[4].ppp  txState:vector  ETV
attr interpolationmode  sample-hold
attr title  "tx state, vector"
vector 2070  ErlangenLTE.eNodeB13.x2ppp[5].queue  queueLength:vector  ETV
attr interpolationmode  sample-hold
attr title  "queue length, vector"
vector 2071  ErlangenLTE.eNodeB13.x2ppp[5].ppp  txState:vector  ETV
attr interpolationmode  sample-hold
attr title  "tx state, vector"
vector 2081  ErlangenLTE.eNodeB13.x2ppp[6].queue  queueLength:vector  ETV
attr interpolationmode  sample-hold
attr title  "queue length, vector"
vector 2082  ErlangenLTE.eNodeB13.x2ppp[6].ppp  txState:vector  ETV
attr interpolationmode  sample-hold
attr title  "tx state, vector"
vector 2147  ErlangenLTE.eNodeB14.pppIf.queue  queueLength:vector  ETV
attr interpolationmode  sample-hold
attr title  "queue length, vector"
vector 2148  ErlangenLTE.eNodeB14.pppIf.ppp  txState:vector  ETV
attr interpolationmode  sample-hold
attr title  "tx state, vector"
vector 2158  ErlangenLTE.eNodeB14.x2ppp[0].queue  queueLength:vector  ETV
attr interpolationmode  sample-hold
attr title  "queue length, vector"
vector 2159  ErlangenLTE.eNodeB14.x2ppp[0].ppp  txState:vector  ETV
attr interpolationmode  sample-hold
attr title  "tx state, vector"
vector 2169  ErlangenLTE.eNodeB14.x2ppp[1].queue  queueLength:vector  ETV
attr interpolationmode  sample-hold
attr title  "queue length, vector"
vector 2170  ErlangenLTE.eNodeB14.x2ppp[1].ppp  txState:vector  ETV
attr interpolationmode  sample-hold
attr title  "tx state, vector"
vector 2180  ErlangenLTE.eNodeB14.x2ppp[2].queue  queueLength:vector  ETV
attr interpolationmode  sample-hold
attr title  "queue length, vector"
vector 2181  ErlangenLTE.eNodeB14.x2ppp[2].ppp  txState:vector  ETV
attr interpolationmode  sample-hold
attr title  "tx state, vector"
vector 2191  ErlangenLTE.eNodeB14.x2ppp[3].queue  queueLength:vector  ETV
attr interpolationmode  sample-hold
attr title  "queue length, vector"
vector 2192  ErlangenLTE.eNodeB14.x2ppp[3].ppp  txState:vector  ETV
attr interpolationmode  sample-hold
attr title  "tx state, vector"
vector 2248  ErlangenLTE.eNodeB15.pppIf.queue  queueLength:vector  ETV
attr interpolationmode  sample-hold
attr title  "queue length, vector"
vector 2249  ErlangenLTE.eNodeB15.pppIf.ppp  txState:vector  ETV
attr interpolationmode  sample-hold
attr title  "tx state, vector"
vector 2259  ErlangenLTE.eNodeB15.x2ppp[0].queue  queueLength:vector  ETV
attr interpolationmode  sample-hold
attr title  "queue length, vector"
vector 2260  ErlangenLTE.eNodeB15.x2ppp[0].ppp  txState:vector  ETV
attr interpolationmode  sample-hold
attr title  "tx state, vector"
vector 2270  ErlangenLTE.eNodeB15.x2ppp[1].queue  queueLength:vector  ETV
attr interpolationmode  sample-hold
attr title  "queue length, vector"
vector 2271  ErlangenLTE.eNodeB15.x2ppp[1].ppp  txState:vector  ETV
attr interpolationmode  sample-hold
attr title  "tx state, vector"
vector 2281  ErlangenLTE.eNodeB15.x2ppp[2].queue  queueLength:vector  ETV
attr interpolationmode  sample-hold
attr title  "queue length, vector"
vector 2282  ErlangenLTE.eNodeB15.x2ppp[2].ppp  txState:vector  ETV
attr interpolationmode  sample-hold
attr title  "tx state, vector"
vector 2292  ErlangenLTE.eNodeB15.x2ppp[3].queue  queueLength:vector  ETV
attr interpolationmode  sample-hold
attr title  "queue length, vector"
vector 2293  ErlangenLTE.eNodeB15.x2ppp[3].ppp  txState:vector  ETV
attr interpolationmode  sample-hold
attr title  "tx state, vector"
vector 2349  ErlangenLTE.eNodeB16.pppIf.queue  queueLength:vector  ETV
attr interpolationmode  sample-hold
attr title  "queue length, vector"
vector 2350  ErlangenLTE.eNodeB16.pppIf.ppp  txState:vector  ETV
attr interpolationmode  sample-hold
attr title  "tx state, vector"
vector 2360  ErlangenLTE.eNodeB16.x2ppp[0].queue  queueLength:vector  ETV
attr interpolationmode  sample-hold
attr title  "queue length, vector"
vector 2361  ErlangenLTE.eNodeB16.x2ppp[0].ppp  txState:vector  ETV
attr interpolationmode  sample-hold
attr title  "tx state, vector"
vector 2371  ErlangenLTE.eNodeB16.x2ppp[1].queue  queueLength:vector  ETV
attr interpolationmode  sample-hold
attr title  "queue length, vector"
vector 2372  ErlangenLTE.eNodeB16.x2ppp[1].ppp  txState:vector  ETV
attr interpolationmode  sample-hold
attr title  "tx state, vector"
vector 2382  ErlangenLTE.eNodeB16.x2ppp[2].queue  queueLength:vector  ETV
attr interpolationmode  sample-hold
attr title  "queue length, vector"
vector 2383  ErlangenLTE.eNodeB16.x2ppp[2].ppp  txState:vector  ETV
attr interpolationmode  sample-hold
attr title  "tx state, vector"
vector 2436  ErlangenLTE.eNodeB17.pppIf.queue  queueLength:vector  ETV
attr interpolationmode  sample-hold
attr title  "queue length, vector"
vector 2437  ErlangenLTE.eNodeB17.pppIf.ppp  txState:vector  ETV
attr interpolationmode  sample-hold
attr title  "tx state, vector"
vector 2447  ErlangenLTE.eNodeB17.x2ppp[0].queue  queueLength:vector  ETV
attr interpolationmode  sample-hold
attr title  "queue length, vector"
vector 2448  ErlangenLTE.eNodeB17.x2ppp[0].ppp  txState:vector  ETV
attr interpolationmode  sample-hold
attr title  "tx state, vector"
vector 2458  ErlangenLTE.eNodeB17.x2ppp[1].queue  queueLength:vector  ETV
attr interpolationmode  sample-hold
attr title  "queue length, vector"
vector 2459  ErlangenLTE.eNodeB17.x2ppp[1].ppp  txState:vector  ETV
attr interpolationmode  sample-hold
attr title  "tx state, vector"
vector 2469  ErlangenLTE.eNodeB17.x2ppp[2].queue  queueLength:vector  ETV
attr interpolationmode  sample-hold
attr title  "queue length, vector"
vector 2470  ErlangenLTE.eNodeB17.x2ppp[2].ppp  txState:vector  ETV
attr interpolationmode  sample-hold
attr title  "tx state, vector"
vector 2480  ErlangenLTE.eNodeB17.x2ppp[3].queue  queueLength:vector  ETV
attr interpolationmode  sample-hold
attr title  "queue length, vector"
vector 2481  ErlangenLTE.eNodeB17.x2ppp[3].ppp  txState:vector  ETV
attr interpolationmode  sample-hold
attr title  "tx state, vector"
vector 2537  ErlangenLTE.eNodeB18.pppIf.queue  queueLength:vector  ETV
attr interpolationmode  sample-hold
attr title  "queue length, vector"
vector 2538  ErlangenLTE.eNodeB18.pppIf.ppp  txState:vector  ETV
attr interpolationmode  sample-hold
attr title  "tx state, vector"
vector 2548  ErlangenLTE.eNodeB18.x2ppp[0].queue  queueLength:vector  ETV
attr interpolationmode  sample-hold
attr title  "queue length, vector"
vector 2549  ErlangenLTE.eNodeB18.x2ppp[0].ppp  txState:vector  ETV
attr interpolationmode  sample-hold
attr title  "tx state, vector"
vector 2559  ErlangenLTE.eNodeB18.x2ppp[1].queue  queueLength:vector  ETV
attr interpolationmode  sample-hold
attr title  "queue length, vector"
vector 2560  ErlangenLTE.eNodeB18.x2ppp[1].ppp  txState:vector  ETV
attr interpolationmode  sample-hold
attr title  "tx state, vector"
vector 2570  ErlangenLTE.eNodeB18.x2ppp[2].queue  queueLength:vector  ETV
attr interpolationmode  sample-hold
attr title  "queue length, vector"
vector 2571  ErlangenLTE.eNodeB18.x2ppp[2].ppp  txState:vector  ETV
attr interpolationmode  sample-hold
attr title  "tx state, vector"
vector 2624  ErlangenLTE.eNodeB19.pppIf.queue  queueLength:vector  ETV
attr interpolationmode  sample-hold
attr title  "queue length, vector"
vector 2625  ErlangenLTE.eNodeB19.pppIf.ppp  txState:vector  ETV
attr interpolationmode  sample-hold
attr title  "tx state, vector"
vector 2635  ErlangenLTE.eNodeB19.x2ppp[0].queue  queueLength:vector  ETV
attr interpolationmode  sample-hold
attr title  "queue length, vector"
vector 2636  ErlangenLTE.eNodeB19.x2ppp[0].ppp  txState:vector  ETV
attr interpolationmode  sample-hold
attr title  "tx state, vector"
vector 2646  ErlangenLTE.eNodeB19.x2ppp[1].queue  queueLength:vector  ETV
attr interpolationmode  sample-hold
attr title  "queue length, vector"
vector 2647  ErlangenLTE.eNodeB19.x2ppp[1].ppp  txState:vector  ETV
attr interpolationmode  sample-hold
attr title  "tx state, vector"
vector 2657  ErlangenLTE.eNodeB19.x2ppp[2].queue  queueLength:vector  ETV
attr interpolationmode  sample-hold
attr title  "queue length, vector"
vector 2658  ErlangenLTE.eNodeB19.x2ppp[2].ppp  txState:vector  ETV
attr interpolationmode  sample-hold
attr title  "tx state, vector"
vector 2711  ErlangenLTE.eNodeB20.pppIf.queue  queueLength:vector  ETV
attr interpolationmode  sample-hold
attr title  "queue length, vector"
vector 2712  ErlangenLTE.eNodeB20.pppIf.ppp  txState:vector  ETV
attr interpolationmode  sample-hold
attr title  "tx state, vector"
vector 2722  ErlangenLTE.eNodeB20.x2ppp[0].queue  queueLength:vector  ETV
attr interpolationmode  sample-hold
attr title  "queue length, vector"
vector 2723  ErlangenLTE.eNodeB20.x2ppp[0].ppp  txState:vector  ETV
attr interpolationmode  sample-hold
attr title  "tx state, vector"
vector 2733  ErlangenLTE.eNodeB20.x2ppp[1].queue  queueLength:vector  ETV
attr interpolationmode  sample-hold
attr title  "queue length, vector"
vector 2734  ErlangenLTE.eNodeB20.x2ppp[1].ppp  txState:vector  ETV
attr interpolationmode  sample-hold
attr title  "tx state, vector"
vector 2744  ErlangenLTE.eNodeB20.x2ppp[2].queue  queueLength:vector  ETV
attr interpolationmode  sample-hold
attr title  "queue length, vector"
vector 2745  ErlangenLTE.eNodeB20.x2ppp[2].ppp  txState:vector  ETV
attr interpolationmode  sample-hold
attr title  "tx state, vector"
vector 2755  ErlangenLTE.eNodeB20.x2ppp[3].queue  queueLength:vector  ETV
attr interpolationmode  sample-hold
attr title  "queue length, vector"
vector 2756  ErlangenLTE.eNodeB20.x2ppp[3].ppp  txState:vector  ETV
attr interpolationmode  sample-hold
attr title  "tx state, vector"
vector 2812  ErlangenLTE.eNodeB21.pppIf.queue  queueLength:vector  ETV
attr interpolationmode  sample-hold
attr title  "queue length, vector"
vector 2813  ErlangenLTE.eNodeB21.pppIf.ppp  txState:vector  ETV
attr interpolationmode  sample-hold
attr title  "tx state, vector"
vector 2823  ErlangenLTE.eNodeB21.x2ppp[0].queue  queueLength:vector  ETV
attr interpolationmode  sample-hold
attr title  "queue length, vector"
vector 2824  ErlangenLTE.eNodeB21.x2ppp[0].ppp  txState:vector  ETV
attr interpolationmode  sample-hold
attr title  "tx state, vector"
vector 2834  ErlangenLTE.eNodeB21.x2ppp[1].queue  queueLength:vector  ETV
attr interpolationmode  sample-hold
attr title  "queue length, vector"
vector 2835  ErlangenLTE.eNodeB21.x2ppp[1].ppp  txState:vector  ETV
attr interpolationmode  sample-hold
attr title  "tx state, vector"
vector 2845  ErlangenLTE.eNodeB21.x2ppp[2].queue  queueLength:vector  ETV
attr interpolationmode  sample-hold
attr title  "queue length, vector"
vector 2846  ErlangenLTE.eNodeB21.x2ppp[2].ppp  txState:vector  ETV
attr interpolationmode  sample-hold
attr title  "tx state, vector"
vector 2899  ErlangenLTE.eNodeB22.pppIf.queue  queueLength:vector  ETV
attr interpolationmode  sample-hold
attr title  "queue length, vector"
vector 2900  ErlangenLTE.eNodeB22.pppIf.ppp  txState:vector  ETV
attr interpolationmode  sample-hold
attr title  "tx state, vector"
vector 2910  ErlangenLTE.eNodeB22.x2ppp[0].queue  queueLength:vector  ETV
attr interpolationmode  sample-hold
attr title  "queue length, vector"
vector 2911  ErlangenLTE.eNodeB22.x2ppp[0].ppp  txState:vector  ETV
attr interpolationmode  sample-hold
attr title  "tx state, vector"
vector 2921  ErlangenLTE.eNodeB22.x2ppp[1].queue  queueLength:vector  ETV
attr interpolationmode  sample-hold
attr title  "queue length, vector"
vector 2922  ErlangenLTE.eNodeB22.x2ppp[1].ppp  txState:vector  ETV
attr interpolationmode  sample-hold
attr title  "tx state, vector"
vector 2932  ErlangenLTE.eNodeB22.x2ppp[2].queue  queueLength:vector  ETV
attr interpolationmode  sample-hold
attr title  "queue length, vector"
vector 2933  ErlangenLTE.eNodeB22.x2ppp[2].ppp  txState:vector  ETV
attr interpolationmode  sample-hold
attr title  "tx state, vector"
vector 2943  ErlangenLTE.eNodeB22.x2ppp[3].queue  queueLength:vector  ETV
attr interpolationmode  sample-hold
attr title  "queue length, vector"
vector 2944  ErlangenLTE.eNodeB22.x2ppp[3].ppp  txState:vector  ETV
attr interpolationmode  sample-hold
attr title  "tx state, vector"
vector 2954  ErlangenLTE.eNodeB22.x2ppp[4].queue  queueLength:vector  ETV
attr interpolationmode  sample-hold
attr title  "queue length, vector"
vector 2955  ErlangenLTE.eNodeB22.x2ppp[4].ppp  txState:vector  ETV
attr interpolationmode  sample-hold
attr title  "tx state, vector"
vector 2965  ErlangenLTE.eNodeB22.x2ppp[5].queue  queueLength:vector  ETV
attr interpolationmode  sample-hold
attr title  "queue length, vector"
vector 2966  ErlangenLTE.eNodeB22.x2ppp[5].ppp  txState:vector  ETV
attr interpolationmode  sample-hold
attr title  "tx state, vector"
vector 3028  ErlangenLTE.eNodeB23.pppIf.queue  queueLength:vector  ETV
attr interpolationmode  sample-hold
attr title  "queue length, vector"
vector 3029  ErlangenLTE.eNodeB23.pppIf.ppp  txState:vector  ETV
attr interpolationmode  sample-hold
attr title  "tx state, vector"
vector 3039  ErlangenLTE.eNodeB23.x2ppp[0].queue  queueLength:vector  ETV
attr interpolationmode  sample-hold
attr title  "queue length, vector"
vector 3040  ErlangenLTE.eNodeB23.x2ppp[0].ppp  txState:vector  ETV
attr interpolationmode  sample-hold
attr title  "tx state, vector"
vector 3050  ErlangenLTE.eNodeB23.x2ppp[1].queue  queueLength:vector  ETV
attr interpolationmode  sample-hold
attr title  "queue length, vector"
vector 3051  ErlangenLTE.eNodeB23.x2ppp[1].ppp  txState:vector  ETV
attr interpolationmode  sample-hold
attr title  "tx state, vector"
vector 3061  ErlangenLTE.eNodeB23.x2ppp[2].queue  queueLength:vector  ETV
attr interpolationmode  sample-hold
attr title  "queue length, vector"
vector 3062  ErlangenLTE.eNodeB23.x2ppp[2].ppp  txState:vector  ETV
attr interpolationmode  sample-hold
attr title  "tx state, vector"
vector 3072  ErlangenLTE.eNodeB23.x2ppp[3].queue  queueLength:vector  ETV
attr interpolationmode  sample-hold
attr title  "queue length, vector"
vector 3073  ErlangenLTE.eNodeB23.x2ppp[3].ppp  txState:vector  ETV
attr interpolationmode  sample-hold
attr title  "tx state, vector"
vector 3129  ErlangenLTE.eNodeB24.pppIf.queue  queueLength:vector  ETV
attr interpolationmode  sample-hold
attr title  "queue length, vector"
vector 3130  ErlangenLTE.eNodeB24.pppIf.ppp  txState:vector  ETV
attr interpolationmode  sample-hold
attr title  "tx state, vector"
vector 3140  ErlangenLTE.eNodeB24.x2ppp[0].queue  queueLength:vector  ETV
attr interpolationmode  sample-hold
attr title  "queue length, vector"
vector 3141  ErlangenLTE.eNodeB24.x2ppp[0].ppp  txState:vector  ETV
attr interpolationmode  sample-hold
attr title  "tx state, vector"
vector 3151  ErlangenLTE.eNodeB24.x2ppp[1].queue  queueLength:vector  ETV
attr interpolationmode  sample-hold
attr title  "queue length, vector"
vector 3152  ErlangenLTE.eNodeB24.x2ppp[1].ppp  txState:vector  ETV
attr interpolationmode  sample-hold
attr title  "tx state, vector"
vector 3162  ErlangenLTE.eNodeB24.x2ppp[2].queue  queueLength:vector  ETV
attr interpolationmode  sample-hold
attr title  "queue length, vector"
vector 3163  ErlangenLTE.eNodeB24.x2ppp[2].ppp  txState:vector  ETV
attr interpolationmode  sample-hold
attr title  "tx state, vector"
vector 3173  ErlangenLTE.eNodeB24.x2ppp[3].queue  queueLength:vector  ETV
attr interpolationmode  sample-hold
attr title  "queue length, vector"
vector 3174  ErlangenLTE.eNodeB24.x2ppp[3].ppp  txState:vector  ETV
attr interpolationmode  sample-hold
attr title  "tx state, vector"
vector 3230  ErlangenLTE.eNodeB25.pppIf.queue  queueLength:vector  ETV
attr interpolationmode  sample-hold
attr title  "queue length, vector"
vector 3231  ErlangenLTE.eNodeB25.pppIf.ppp  txState:vector  ETV
attr interpolationmode  sample-hold
attr title  "tx state, vector"
vector 3241  ErlangenLTE.eNodeB25.x2ppp[0].queue  queueLength:vector  ETV
attr interpolationmode  sample-hold
attr title  "queue length, vector"
vector 3242  ErlangenLTE.eNodeB25.x2ppp[0].ppp  txState:vector  ETV
attr interpolationmode  sample-hold
attr title  "tx state, vector"
vector 3252  ErlangenLTE.eNodeB25.x2ppp[1].queue  queueLength:vector  ETV
attr interpolationmode  sample-hold
attr title  "queue length, vector"
vector 3253  ErlangenLTE.eNodeB25.x2ppp[1].ppp  txState:vector  ETV
attr interpolationmode  sample-hold
attr title  "tx state, vector"
vector 3263  ErlangenLTE.eNodeB25.x2ppp[2].queue  queueLength:vector  ETV
attr interpolationmode  sample-hold
attr title  "queue length, vector"
vector 3264  ErlangenLTE.eNodeB25.x2ppp[2].ppp  txState:vector  ETV
attr interpolationmode  sample-hold
attr title  "tx state, vector"
vector 3317  ErlangenLTE.eNodeB26.pppIf.queue  queueLength:vector  ETV
attr interpolationmode  sample-hold
attr title  "queue length, vector"
vector 3318  ErlangenLTE.eNodeB26.pppIf.ppp  txState:vector  ETV
attr interpolationmode  sample-hold
attr title  "tx state, vector"
vector 3328  ErlangenLTE.eNodeB26.x2ppp[0].queue  queueLength:vector  ETV
attr interpolationmode  sample-hold
attr title  "queue length, vector"
vector 3329  ErlangenLTE.eNodeB26.x2ppp[0].ppp  txState:vector  ETV
attr interpolationmode  sample-hold
attr title  "tx state, vector"
vector 3339  ErlangenLTE.eNodeB26.x2ppp[1].queue  queueLength:vector  ETV
attr interpolationmode  sample-hold
attr title  "queue length, vector"
vector 3340  ErlangenLTE.eNodeB26.x2ppp[1].ppp  txState:vector  ETV
attr interpolationmode  sample-hold
attr title  "tx state, vector"
[...]
1151	135738 11 0 0 0 0 1 0 0 0 0
1152	135749 11 0 0 0 0 1 0 0 0 0
1162	135760 11 0 0 0 0 1 0 0 0 0
1163	135771 11 0 0 0 0 1 0 0 0 0
1173	135782 11 0 0 0 0 1 0 0 0 0
1174	135793 11 0 0 0 0 1 0 0 0 0
1184	135804 11 0 0 0 0 1 0 0 0 0
1185	135815 11 0 0 0 0 1 0 0 0 0
1238	135826 11 0 0 0 0 1 0 0 0 0
1239	135837 11 0 0 0 0 1 0 0 0 0
1249	135848 11 0 0 0 0 1 0 0 0 0
1250	135859 11 0 0 0 0 1 0 0 0 0
1260	135870 11 0 0 0 0 1 0 0 0 0
1261	135881 11 0 0 0 0 1 0 0 0 0
1271	135892 11 0 0 0 0 1 0 0 0 0
1272	135903 11 0 0 0 0 1 0 0 0 0
1325	135914 11 0 0 0 0 1 0 0 0 0
1326	135925 11 0 0 0 0 1 0 0 0 0
1336	135936 11 0 0 0 0 1 0 0 0 0
1337	135947 11 0 0 0 0 1 0 0 0 0
1347	135958 11 0 0 0 0 1 0 0 0 0
1348	135969 11 0 0 0 0 1 0 0 0 0
1358	135980 11 0 0 0 0 1 0 0 0 0
1359	135991 11 0 0 0 0 1 0 0 0 0
1369	136002 11 0 0 0 0 1 0 0 0 0
1370	136013 11 0 0 0 0 1 0 0 0 0
1380	136024 11 0 0 0 0 1 0 0 0 0
1381	136035 11 0 0 0 0 1 0 0 0 0
1440	136046 11 0 0 0 0 1 0 0 0 0
1441	136057 11 0 0 0 0 1 0 0 0 0
1451	136068 11 0 0 0 0 1 0 0 0 0
1452	136079 11 0 0 0 0 1 0 0 0 0
1462	136090 11 0 0 0 0 1 0 0 0 0
1463	136101 11 0 0 0 0 1 0 0 0 0
1473	136112 11 0 0 0 0 1 0 0 0 0
1474	136123 11 0 0 0 0 1 0 0 0 0
1527	136134 11 0 0 0 0 1 0 0 0 0
1528	136145 11 0 0 0 0 1 0 0 0 0
1538	136156 11 0 0 0 0 1 0 0 0 0
1539	136167 11 0 0 0 0 1 0 0 0 0
1549	136178 11 0 0 0 0 1 0 0 0 0
1550	136189 11 0 0 0 0 1 0 0 0 0
1560	136200 11 0 0 0 0 1 0 0 0 0
1561	136211 11 0 0 0 0 1 0 0 0 0
1571	136222 11 0 0 0 0 1 0 0 0 0
1572	136233 11 0 0 0 0 1 0 0 0 0
1628	136244 11 0 0 0 0 1 0 0 0 0
1629	136255 11 0 0 0 0 1 0 0 0 0
1639	136266 11 0 0 0 0 1 0 0 0 0
1640	136277 11 0 0 0 0 1 0 0 0 0
1650	136288 11 0 0 0 0 1 0 0 0 0
1651	136299 11 0 0 0 0 1 0 0 0 0
1661	136310 11 0 0 0 0 1 0 0 0 0
1662	136321 11 0 0 0 0 1 0 0 0 0
1715	136332 11 0 0 0 0 1 0 0 0 0
1716	136343 11 0 0 0 0 1 0 0 0 0
1726	136354 11 0 0 0 0 1 0 0 0 0
1727	136365 11 0 0 0 0 1 0 0 0 0
1737	136376 11 0 0 0 0 1 0 0 0 0
1738	136387 11 0 0 0 0 1 0 0 0 0
1748	136398 11 0 0 0 0 1 0 0 0 0
1749	136409 11 0 0 0 0 1 0 0 0 0
1759	136420 11 0 0 0 0 1 0 0 0 0
1760	136431 11 0 0 0 0 1 0 0 0 0
1770	136442 11 0 0 0 0 1 0 0 0 0
1771	136453 11 0 0 0 0 1 0 0 0 0
1830	136464 11 0 0 0 0 1 0 0 0 0
1831	136475 11 0 0 0 0 1 0 0 0 0
1841	136486 11 0 0 0 0 1 0 0 0 0
1842	136497 11 0 0 0 0 1 0 0 0 0
1852	136508 11 0 0 0 0 1 0 0 0 0
1853	136519 11 0 0 0 0 1 0 0 0 0
1863	136530 11 0 0 0 0 1 0 0 0 0
1864	136541 11 0 0 0 0 1 0 0 0 0
1917	136552 11 0 0 0 0 1 0 0 0 0
1918	136563 11 0 0 0 0 1 0 0 0 0
1928	136574 11 0 0 0 0 1 0 0 0 0
1929	136585 11 0 0 0 0 1 0 0 0 0
1939	136596 11 0 0 0 0 1 0 0 0 0
1940	136607 11 0 0 0 0 1 0 0 0 0
1950	136618 11 0 0 0 0 1 0 0 0 0
1951	136629 11 0 0 0 0 1 0 0 0 0
2004	136640 11 0 0 0 0 1 0 0 0 0
2005	136651 11 0 0 0 0 1 0 0 0 0
2015	136662 11 0 0 0 0 1 0 0 0 0
2016	136673 11 0 0 0 0 1 0 0 0 0
2026	136684 11 0 0 0 0 1 0 0 0 0
2027	136695 11 0 0 0 0 1 0 0 0 0
2037	136706 11 0 0 0 0 1 0 0 0 0
2038	136717 11 0 0 0 0 1 0 0 0 0
2048	136728 11 0 0 0 0 1 0 0 0 0
2049	136739 11 0 0 0 0 1 0 0 0 0
2059	136750 11 0 0 0 0 1 0 0 0 0
2060	136761 11 0 0 0 0 1 0 0 0 0
2070	136772 11 0 0 0 0 1 0 0 0 0
2071	136783 11 0 0 0 0 1 0 0 0 0
2081	136794 11 0 0 0 0 1 0 0 0 0
2082	136805 11 0 0 0 0 1 0 0 0 0
2147	136816 11 0 0 0 0 1 0 0 0 0
2148	136827 11 0 0 0 0 1 0 0 0 0
2158	136838 11 0 0 0 0 1 0 0 0 0
2159	136849 11 0 0 0 0 1 0 0 0 0
2169	136860 11 0 0 0 0 1 0 0 0 0
2170	136871 11 0 0 0 0 1 0 0 0 0
2180	136882 11 0 0 0 0 1 0 0 0 0
2181	136893 11 0 0 0 0 1 0 0 0 0
2191	136904 11 0 0 0 0 1 0 0 0 0
2192	136915 11 0 0 0 0 1 0 0 0 0
2248	136926 11 0 0 0 0 1 0 0 0 0
2249	136937 11 0 0 0 0 1 0 0 0 0
2259	136948 11 0 0 0 0 1 0 0 0 0
2260	136959 11 0 0 0 0 1 0 0 0 0
2270	136970 11 0 0 0 0 1 0 0 0 0
2271	136981 11 0 0 0 0 1 0 0 0 0
2281	136992 11 0 0 0 0 1 0 0 0 0
2282	137003 11 0 0 0 0 1 0 0 0 0
2292	137014 11 0 0 0 0 1 0 0 0 0
2293	137025 11 0 0 0 0 1 0 0 0 0
2349	137036 11 0 0 0 0 1 0 0 0 0
2350	137047 11 0 0 0 0 1 0 0 0 0
2360	137058 11 0 0 0 0 1 0 0 0 0
2361	137069 11 0 0 0 0 1 0 0 0 0
2371	137080 11 0 0 0 0 1 0 0 0 0
2372	137091 11 0 0 0 0 1 0 0 0 0
2382	137102 11 0 0 0 0 1 0 0 0 0
2383	137113 11 0 0 0 0 1 0 0 0 0
2436	137124 11 0 0 0 0 1 0 0 0 0
2437	137135 11 0 0 0 0 1 0 0 0 0
2447	137146 11 0 0 0 0 1 0 0 0 0
2448	137157 11 0 0 0 0 1 0 0 0 0
2458	137168 11 0 0 0 0 1 0 0 0 0
2459	137179 11 0 0 0 0 1 0 0 0 0
2469	137190 11 0 0 0 0 1 0 0 0 0
2470	137201 11 0 0 0 0 1 0 0 0 0
2480	137212 11 0 0 0 0 1 0 0 0 0
2481	137223 11 0 0 0 0 1 0 0 0 0
2537	137234 11 0 0 0 0 1 0 0 0 0
2538	137245 11 0 0 0 0 1 0 0 0 0
2548	137256 11 0 0 0 0 1 0 0 0 0
2549	137267 11 0 0 0 0 1 0 0 0 0
2559	137278 11 0 0 0 0 1 0 0 0 0
2560	137289 11 0 0 0 0 1 0 0 0 0
2570	137300 11 0 0 0 0 1 0 0 0 0
2571	137311 11 0 0 0 0 1 0 0 0 0
2624	137322 11 0 0 0 0 1 0 0 0 0
2625	137333 11 0 0 0 0 1 0 0 0 0
2635	137344 11 0 0 0 0 1 0 0 0 0
2636	137355 11 0 0 0 0 1 0 0 0 0
2646	137366 11 0 0 0 0 1 0 0 0 0
2647	137377 11 0 0 0 0 1 0 0 0 0
2657	137388 11 0 0 0 0 1 0 0 0 0
2658	137399 11 0 0 0 0 1 0 0 0 0
2711	137410 11 0 0 0 0 1 0 0 0 0
2712	137421 11 0 0 0 0 1 0 0 0 0
2722	137432 11 0 0 0 0 1 0 0 0 0
2723	137443 11 0 0 0 0 1 0 0 0 0
2733	137454 11 0 0 0 0 1 0 0 0 0
2734	137465 11 0 0 0 0 1 0 0 0 0
2744	137476 11 0 0 0 0 1 0 0 0 0
2745	137487 11 0 0 0 0 1 0 0 0 0
2755	137498 11 0 0 0 0 1 0 0 0 0
2756	137509 11 0 0 0 0 1 0 0 0 0
2812	137520 11 0 0 0 0 1 0 0 0 0
2813	137531 11 0 0 0 0 1 0 0 0 0
2823	137542 11 0 0 0 0 1 0 0 0 0
2824	137553 11 0 0 0 0 1 0 0 0 0
2834	137564 11 0 0 0 0 1 0 0 0 0
2835	137575 11 0 0 0 0 1 0 0 0 0
2845	137586 11 0 0 0 0 1 0 0 0 0
2846	137597 11 0 0 0 0 1 0 0 0 0
2899	137608 11 0 0 0 0 1 0 0 0 0
2900	137619 11 0 0 0 0 1 0 0 0 0
2910	137630 11 0 0 0 0 1 0 0 0 0
2911	137641 11 0 0 0 0 1 0 0 0 0
2921	137652 11 0 0 0 0 1 0 0 0 0
2922	137663 11 0 0 0 0 1 0 0 0 0
2932	137674 11 0 0 0 0 1 0 0 0 0
2933	137685 11 0 0 0 0 1 0 0 0 0
2943	137696 11 0 0 0 0 1 0 0 0 0
2944	137707 11 0 0 0 0 1 0 0 0 0
2954	137718 11 0 0 0 0 1 0 0 0 0
2955	137729 11 0 0 0 0 1 0 0 0 0
2965	137740 11 0 0 0 0 1 0 0 0 0
2966	137751 11 0 0 0 0 1 0 0 0 0
3028	137762 11 0 0 0 0 1 0 0 0 0
3029	137773 11 0 0 0 0 1 0 0 0 0
3039	137784 11 0 0 0 0 1 0 0 0 0
3040	137795 11 0 0 0 0 1 0 0 0 0
3050	137806 11 0 0 0 0 1 0 0 0 0
3051	137817 11 0 0 0 0 1 0 0 0 0
3061	137828 11 0 0 0 0 1 0 0 0 0
3062	137839 11 0 0 0 0 1 0 0 0 0
3072	137850 11 0 0 0 0 1 0 0 0 0
3073	137861 11 0 0 0 0 1 0 0 0 0
3129	137872 11 0 0 0 0 1 0 0 0 0
3130	137883 11 0 0 0 0 1 0 0 0 0
3140	137894 11 0 0 0 0 1 0 0 0 0
3141	137905 11 0 0 0 0 1 0 0 0 0
3151	137916 11 0 0 0 0 1 0 0 0 0
3152	137927 11 0 0 0 0 1 0 0 0 0
3162	137938 11 0 0 0 0 1 0 0 0 0
3163	137949 11 0 0 0 0 1 0 0 0 0
3173	137960 11 0 0 0 0 1 0 0 0 0
3174	137971 11 0 0 0 0 1 0 0 0 0
3230	137982 11 0 0 0 0 1 0 0 0 0
3231	137993 11 0 0 0 0 1 0 0 0 0
3241	138004 11 0 0 0 0 1 0 0 0 0
3242	138015 11 0 0 0 0 1 0 0 0 0
3252	138026 11 0 0 0 0 1 0 0 0 0
3253	138037 11 0 0 0 0 1 0 0 0 0
3263	138048 11 0 0 0 0 1 0 0 0 0
3264	138059 11 0 0 0 0 1 0 0 0 0
3317	138070 11 0 0 0 0 1 0 0 0 0
3318	138081 11 0 0 0 0 1 0 0 0 0
3328	138092 11 0 0 0 0 1 0 0 0 0
3329	138103 11 0 0 0 0 1 0 0 0 0
3339	138114 11 0 0 0 0 1 0 0 0 0
3340	138125 11 0 0 0 0 1 0 0 0 0
3350	138136 11 0 0 0 0 1 0 0 0 0
3351	138147 11 0 0 0 0 1 0 0 0 0
3404	138158 11 0 0 0 0 1 0 0 0 0
3405	138169 11 0 0 0 0 1 0 0 0 0
3415	138180 11 0 0 0 0 1 0 0 0 0
3416	138191 11 0 0 0 0 1 0 0 0 0
3426	138202 11 0 0 0 0 1 0 0 0 0
3427	138213 11 0 0 0 0 1 0 0 0 0
3437	138224 11 0 0 0 0 1 0 0 0 0
3438	138235 11 0 0 0 0 1 0 0 0 0
3491	138246 11 0 0 0 0 1 0 0 0 0
3492	138257 11 0 0 0 0 1 0 0 0 0
3502	138268 11 0 0 0 0 1 0 0 0 0
3503	138279 11 0 0 0 0 1 0 0 0 0
3513	138290 11 0 0 0 0 1 0 0 0 0
3514	138301 11 0 0 0 0 1 0 0 0 0
3524	138312 11 0 0 0 0 1 0 0 0 0
3525	138323 11 0 0 0 0 1 0 0 0 0
3535	138334 11 0 0 0 0 1 0 0 0 0
3536	138345 11 0 0 0 0 1 0 0 0 0
3592	138356 11 0 0 0 0 1 0 0 0 0
3593	138367 11 0 0 0 0 1 0 0 0 0
3603	138378 11 0 0 0 0 1 0 0 0 0
3604	138389 11 0 0 0 0 1 0 0 0 0
3614	138400 11 0 0 0 0 1 0 0 0 0
3615	138411 11 0 0 0 0 1 0 0 0 0
3625	138422 11 0 0 0 0 1 0 0 0 0
3626	138433 11 0 0 0 0 1 0 0 0 0
3679	138444 11 0 0 0 0 1 0 0 0 0
3680	138455 11 0 0 0 0 1 0 0 0 0
3690	138466 11 0 0 0 0 1 0 0 0 0
3691	138477 11 0 0 0 0 1 0 0 0 0
3701	138488 11 0 0 0 0 1 0 0 0 0
3702	138499 11 0 0 0 0 1 0 0 0 0
3712	138510 11 0 0 0 0 1 0 0 0 0
3713	138521 11 0 0 0 0 1 0 0 0 0
3723	138532 11 0 0 0 0 1 0 0 0 0
3724	138543 11 0 0 0 0 1 0 0 0 0
3780	138554 11 0 0 0 0 1 0 0 0 0
3781	138565 11 0 0 0 0 1 0 0 0 0
3791	138576 11 0 0 0 0 1 0 0 0 0
3792	138587 11 0 0 0 0 1 0 0 0 0
3802	138598 11 0 0 0 0 1 0 0 0 0
3803	138609 11 0 0 0 0 1 0 0 0 0
3813	138620 11 0 0 0 0 1 0 0 0 0
3814	138631 11 0 0 0 0 1 0 0 0 0
3824	138642 11 0 0 0 0 1 0 0 0 0
3825	138653 11 0 0 0 0 1 0 0 0 0
3881	138664 11 0 0 0 0 1 0 0 0 0
3882	138675 11 0 0 0 0 1 0 0 0 0
3892	138686 11 0 0 0 0 1 0 0 0 0
3893	138697 11 0 0 0 0 1 0 0 0 0
3903	138708 11 0 0 0 0 1 0 0 0 0
3904	138719 11 0 0 0 0 1 0 0 0 0
3914	138730 11 0 0 0 0 1 0 0 0 0
3915	138741 11 0 0 0 0 1 0 0 0 0
3925	138752 11 0 0 0 0 1 0 0 0 0
3926	138763 11 0 0 0 0 1 0 0 0 0
3982	138774 11 0 0 0 0 1 0 0 0 0
3983	138785 11 0 0 0 0 1 0 0 0 0
3993	138796 11 0 0 0 0 1 0 0 0 0
3994	138807 11 0 0 0 0 1 0 0 0 0
4004	138818 11 0 0 0 0 1 0 0 0 0
4005	138829 11 0 0 0 0 1 0 0 0 0
4015	138840 11 0 0 0 0 1 0 0 0 0
4016	138851 11 0 0 0 0 1 0 0 0 0
4069	138862 11 0 0 0 0 1 0 0 0 0
4070	138873 11 0 0 0 0 1 0 0 0 0
4080	138884 11 0 0 0 0 1 0 0 0 0
4081	138895 11 0 0 0 0 1 0 0 0 0
4091	138906 11 0 0 0 0 1 0 0 0 0
4092	138917 11 0 0 0 0 1 0 0 0 0
4102	138928 11 0 0 0 0 1 0 0 0 0
4103	138939 11 0 0 0 0 1 0 0 0 0
4113	138950 11 0 0 0 0 1 0 0 0 0
4114	138961 11 0 0 0 0 1 0 0 0 0
4170	138972 11 0 0 0 0 1 0 0 0 0
4171	138983 11 0 0 0 0 1 0 0 0 0
4181	138994 11 0 0 0 0 1 0 0 0 0
4182	139005 11 0 0 0 0 1 0 0 0 0
4192	139016 11 0 0 0 0 1 0 0 0 0
4193	139027 11 0 0 0 0 1 0 0 0 0
4203	139038 11 0 0 0 0 1 0 0 0 0
4204	139049 11 0 0 0 0 1 0 0 0 0
4214	139060 11 0 0 0 0 1 0 0 0 0
4215	139071 11 0 0 0 0 1 0 0 0 0
4271	139082 11 0 0 0 0 1 0 0 0 0
4272	139093 11 0 0 0 0 1 0 0 0 0
4282	139104 11 0 0 0 0 1 0 0 0 0
4283	139115 11 0 0 0 0 1 0 0 0 0
4293	139126 11 0 0 0 0 1 0 0 0 0
4294	139137 11 0 0 0 0 1 0 0 0 0
4304	139148 11 0 0 0 0 1 0 0 0 0
4305	139159 11 0 0 0 0 1 0 0 0 0
4315	139170 11 0 0 0 0 1 0 0 0 0
4316	139181 11 0 0 0 0 1 0 0 0 0
4372	139192 11 0 0 0 0 1 0 0 0 0
4373	139203 11 0 0 0 0 1 0 0 0 0
4383	139214 11 0 0 0 0 1 0 0 0 0
4384	139225 11 0 0 0 0 1 0 0 0 0
4394	139236 11 0 0 0 0 1 0 0 0 0
4395	139247 11 0 0 0 0 1 0 0 0 0
4405	139258 11 0 0 0 0 1 0 0 0 0
4406	139269 11 0 0 0 0 1 0 0 0 0
4416	139280 11 0 0 0 0 1 0 0 0 0
4417	139291 11 0 0 0 0 1 0 0 0 0
4473	139302 11 0 0 0 0 1 0 0 0 0
4474	139313 11 0 0 0 0 1 0 0 0 0
4484	139324 11 0 0 0 0 1 0 0 0 0
4485	139335 11 0 0 0 0 1 0 0 0 0
4495	139346 11 0 0 0 0 1 0 0 0 0
4496	139357 11 0 0 0 0 1 0 0 0 0
4506	139368 11 0 0 0 0 1 0 0 0 0
4507	139379 11 0 0 0 0 1 0 0 0 0
4517	139390 11 0 0 0 0 1 0 0 0 0
4518	139401 11 0 0 0 0 1 0 0 0 0
4574	139412 11 0 0 0 0 1 0 0 0 0
4575	139423 11 0 0 0 0 1 0 0 0 0
4585	139434 11 0 0 0 0 1 0 0 0 0
4586	139445 11 0 0 0 0 1 0 0 0 0
4596	139456 11 0 0 0 0 1 0 0 0 0
4597	139467 11 0 0 0 0 1 0 0 0 0
4607	139478 11 0 0 0 0 1 0 0 0 0
4608	139489 11 0 0 0 0 1 0 0 0 0
4618	139500 11 0 0 0 0 1 0 0 0 0
4619	139511 11 0 0 0 0 1 0 0 0 0
4675	139522 11 0 0 0 0 1 0 0 0 0
4676	139533 11 0 0 0 0 1 0 0 0 0
4686	139544 11 0 0 0 0 1 0 0 0 0
4687	139555 11 0 0 0 0 1 0 0 0 0
4697	139566 11 0 0 0 0 1 0 0 0 0
4698	139577 11 0 0 0 0 1 0 0 0 0
4708	139588 11 0 0 0 0 1 0 0 0 0
4709	139599 11 0 0 0 0 1 0 0 0 0
4719	139610 11 0 0 0 0 1 0 0 0 0
4720	139621 11 0 0 0 0 1 0 0 0 0
4776	139632 11 0 0 0 0 1 0 0 0 0
4777	139643 11 0 0 0 0 1 0 0 0 0
4787	139654 11 0 0 0 0 1 0 0 0 0
4788	139665 11 0 0 0 0 1 0 0 0 0
4798	139676 11 0 0 0 0 1 0 0 0 0
4799	139687 11 0 0 0 0 1 0 0 0 0
4809	139698 11 0 0 0 0 1 0 0 0 0
4810	139709 11 0 0 0 0 1 0 0 0 0
4820	139720 11 0 0 0 0 1 0 0 0 0
4821	139731 11 0 0 0 0 1 0 0 0 0
4877	139742 11 0 0 0 0 1 0 0 0 0
4878	139753 11 0 0 0 0 1 0 0 0 0
4888	139764 11 0 0 0 0 1 0 0 0 0
4889	139775 11 0 0 0 0 1 0 0 0 0
4899	139786 11 0 0 0 0 1 0 0 0 0
4900	139797 11 0 0 0 0 1 0 0 0 0
4910	139808 11 0 0 0 0 1 0 0 0 0
4911	139819 11 0 0 0 0 1 0 0 0 0
4964	139830 11 0 0 0 0 1 0 0 0 0
4965	139841 11 0 0 0 0 1 0 0 0 0
4975	139852 11 0 0 0 0 1 0 0 0 0
4976	139863 11 0 0 0 0 1 0 0 0 0
4986	139874 11 0 0 0 0 1 0 0 0 0
4987	139885 11 0 0 0 0 1 0 0 0 0
4997	139896 11 0 0 0 0 1 0 0 0 0
4998	139907 11 0 0 0 0 1 0 0 0 0
5051	139918 11 0 0 0 0 1 0 0 0 0
5052	139929 11 0 0 0 0 1 0 0 0 0
5062	139940 11 0 0 0 0 1 0 0 0 0
5063	139951 11 0 0 0 0 1 0 0 0 0
5073	139962 11 0 0 0 0 1 0 0 0 0
5074	139973 11 0 0 0 0 1 0 0 0 0
5084	139984 11 0 0 0 0 1 0 0 0 0
5085	139995 11 0 0 0 0 1 0 0 0 0
5138	140006 11 0 0 0 0 1 0 0 0 0
5139	140017 11 0 0 0 0 1 0 0 0 0
5149	140028 11 0 0 0 0 1 0 0 0 0
5150	140039 11 0 0 0 0 1 0 0 0 0
5160	140050 11 0 0 0 0 1 0 0 0 0
5161	140061 11 0 0 0 0 1 0 0 0 0
5171	140072 11 0 0 0 0 1 0 0 0 0
5172	140083 11 0 0 0 0 1 0 0 0 0
5182	140094 11 0 0 0 0 1 0 0 0 0
5183	140105 11 0 0 0 0 1 0 0 0 0
5239	140116 11 0 0 0 0 1 0 0 0 0
5240	140127 11 0 0 0 0 1 0 0 0 0
5250	140138 11 0 0 0 0 1 0 0 0 0
5251	140149 11 0 0 0 0 1 0 0 0 0
5261	140160 11 0 0 0 0 1 0 0 0 0
5262	140171 11 0 0 0 0 1 0 0 0 0
5272	140182 11 0 0 0 0 1 0 0 0 0
5273	140193 11 0 0 0 0 1 0 0 0 0
5283	140204 11 0 0 0 0 1 0 0 0 0
5284	140215 11 0 0 0 0 1 0 0 0 0
5340	140226 11 0 0 0 0 1 0 0 0 0
5341	140237 11 0 0 0 0 1 0 0 0 0
5351	140248 11 0 0 0 0 1 0 0 0 0
5352	140259 11 0 0 0 0 1 0 0 0 0
5362	140270 11 0 0 0 0 1 0 0 0 0
5363	140281 11 0 0 0 0 1 0 0 0 0
5373	140292 11 0 0 0 0 1 0 0 0 0
5374	140303 11 0 0 0 0 1 0 0 0 0
5384	140314 11 0 0 0 0 1 0 0 0 0
5385	140325 11 0 0 0 0 1 0 0 0 0
5441	140336 11 0 0 0 0 1 0 0 0 0
5442	140347 11 0 0 0 0 1 0 0 0 0
5452	140358 11 0 0 0 0 1 0 0 0 0
5453	140369 11 0 0 0 0 1 0 0 0 0
5463	140380 11 0 0 0 0 1 0 0 0 0
5464	140391 11 0 0 0 0 1 0 0 0 0
5474	140402 11 0 0 0 0 1 0 0 0 0
5475	140413 11 0 0 0 0 1 0 0 0 0
5528	140424 11 0 0 0 0 1 0 0 0 0
5529	140435 11 0 0 0 0 1 0 0 0 0
5539	140446 11 0 0 0 0 1 0 0 0 0
5540	140457 11 0 0 0 0 1 0 0 0 0
5550	140468 11 0 0 0 0 1 0 0 0 0
5551	140479 11 0 0 0 0 1 0 0 0 0
5561	140490 11 0 0 0 0 1 0 0 0 0
5562	140501 11 0 0 0 0 1 0 0 0 0
5572	140512 11 0 0 0 0 1 0 0 0 0
5573	140523 11 0 0 0 0 1 0 0 0 0
5629	140534 11 0 0 0 0 1 0 0 0 0
5630	140545 11 0 0 0 0 1 0 0 0 0
5640	140556 11 0 0 0 0 1 0 0 0 0
5641	140567 11 0 0 0 0 1 0 0 0 0
5651	140578 11 0 0 0 0 1 0 0 0 0
5652	140589 11 0 0 0 0 1 0 0 0 0
5662	140600 11 0 0 0 0 1 0 0 0 0
5663	140611 11 0 0 0 0 1 0 0 0 0
5673	140622 11 0 0 0 0 1 0 0 0 0
5674	140633 11 0 0 0 0 1 0 0 0 0
5684	140644 11 0 0 0 0 1 0 0 0 0
5685	140655 11 0 0 0 0 1 0 0 0 0
5695	140666 11 0 0 0 0 1 0 0 0 0
5696	140677 11 0 0 0 0 1 0 0 0 0
5706	140688 11 0 0 0 0 1 0 0 0 0
5707	140699 11 0 0 0 0 1 0 0 0 0
5772	140710 11 0 0 0 0 1 0 0 0 0
5773	140721 11 0 0 0 0 1 0 0 0 0
5783	140732 11 0 0 0 0 1 0 0 0 0
5784	140743 11 0 0 0 0 1 0 0 0 0
5794	140754 11 0 0 0 0 1 0 0 0 0
5795	140765 11 0 0 0 0 1 0 0 0 0
5805	140776 11 0 0 0 0 1 0 0 0 0
5806	140787 11 0 0 0 0 1 0 0 0 0
5816	140798 11 0 0 0 0 1 0 0 0 0
5817	140809 11 0 0 0 0 1 0 0 0 0
5873	140820 11 0 0 0 0 1 0 0 0 0
5874	140831 11 0 0 0 0 1 0 0 0 0
5884	140842 11 0 0 0 0 1 0 0 0 0
5885	140853 11 0 0 0 0 1 0 0 0 0
5895	140864 11 0 0 0 0 1 0 0 0 0
5896	140875 11 0 0 0 0 1 0 0 0 0
5906	140886 11 0 0 0 0 1 0 0 0 0
5907	140897 11 0 0 0 0 1 0 0 0 0
5917	140908 11 0 0 0 0 1 0 0 0 0
5918	140919 11 0 0 0 0 1 0 0 0 0
5974	140930 11 0 0 0 0 1 0 0 0 0
5975	140941 11 0 0 0 0 1 0 0 0 0
5985	140952 11 0 0 0 0 1 0 0 0 0
5986	140963 11 0 0 0 0 1 0 0 0 0
5996	140974 11 0 0 0 0 1 0 0 0 0
5997	140985 11 0 0 0 0 1 0 0 0 0
6007	140996 11 0 0 0 0 1 0 0 0 0
6008	141007 11 0 0 0 0 1 0 0 0 0
6061	141018 11 0 0 0 0 1 0 0 0 0
6062	141029 11 0 0 0 0 1 0 0 0 0
6072	141040 11 0 0 0 0 1 0 0 0 0
6073	141051 11 0 0 0 0 1 0 0 0 0
6083	141062 11 0 0 0 0 1 0 0 0 0
6084	141073 11 0 0 0 0 1 0 0 0 0
6094	141084 11 0 0 0 0 1 0 0 0 0
6095	141095 11 0 0 0 0 1 0 0 0 0
6148	141106 11 0 0 0 0 1 0 0 0 0
6149	141117 11 0 0 0 0 1 0 0 0 0
6159	141128 11 0 0 0 0 1 0 0 0 0
6160	141139 11 0 0 0 0 1 0 0 0 0
6170	141150 11 0 0 0 0 1 0 0 0 0
6171	141161 11 0 0 0 0 1 0 0 0 0
6181	141172 11 0 0 0 0 1 0 0 0 0
6182	141183 11 0 0 0 0 1 0 0 0 0
6235	141194 11 0 0 0 0 1 0 0 0 0
6236	141205 11 0 0 0 0 1 0 0 0 0
6246	141216 11 0 0 0 0 1 0 0 0 0
6247	141227 11 0 0 0 0 1 0 0 0 0
6257	141238 11 0 0 0 0 1 0 0 0 0
6258	141249 11 0 0 0 0 1 0 0 0 0
6268	141260 11 0 0 0 0 1 0 0 0 0
6269	141271 11 0 0 0 0 1 0 0 0 0
6322	141282 11 0 0 0 0 1 0 0 0 0
6323	141293 11 0 0 0 0 1 0 0 0 0
6333	141304 11 0 0 0 0 1 0 0 0 0
6334	141315 11 0 0 0 0 1 0 0 0 0
6344	141326 11 0 0 0 0 1 0 0 0 0
6345	141337 11 0 0 0 0 1 0 0 0 0
6355	141348 11 0 0 0 0 1 0 0 0 0
6356	141359 11 0 0 0 0 1 0 0 0 0
6409	141370 11 0 0 0 0 1 0 0 0 0
6410	141381 11 0 0 0 0 1 0 0 0 0
6420	141392 11 0 0 0 0 1 0 0 0 0
6421	141403 11 0 0 0 0 1 0 0 0 0
6431	141414 11 0 0 0 0 1 0 0 0 0
6432	141425 11 0 0 0 0 1 0 0 0 0
6442	141436 11 0 0 0 0 1 0 0 0 0
6443	141447 11 0 0 0 0 1 0 0 0 0
6496	141458 11 0 0 0 0 1 0 0 0 0
6497	141469 11 0 0 0 0 1 0 0 0 0
6507	141480 11 0 0 0 0 1 0 0 0 0
6508	141491 11 0 0 0 0 1 0 0 0 0
6518	141502 11 0 0 0 0 1 0 0 0 0
6519	141513 11 0 0 0 0 1 0 0 0 0
6529	141524 11 0 0 0 0 1 0 0 0 0
6530	141535 11 0 0 0 0 1 0 0 0 0
6540	141546 11 0 0 0 0 1 0 0 0 0
6541	141557 11 0 0 0 0 1 0 0 0 0
6551	141568 11 0 0 0 0 1 0 0 0 0
6552	141579 11 0 0 0 0 1 0 0 0 0
6562	141590 11 0 0 0 0 1 0 0 0 0
6563	141601 11 0 0 0 0 1 0 0 0 0
6573	141612 11 0 0 0 0 1 0 0 0 0
6574	141623 11 0 0 0 0 1 0 0 0 0
6639	141634 11 0 0 0 0 1 0 0 0 0
6640	141645 11 0 0 0 0 1 0 0 0 0
6650	141656 11 0 0 0 0 1 0 0 0 0
6651	141667 11 0 0 0 0 1 0 0 0 0
6661	141678 11 0 0 0 0 1 0 0 0 0
6662	141689 11 0 0 0 0 1 0 0 0 0
6672	141700 11 0 0 0 0 1 0 0 0 0
6673	141711 11 0 0 0 0 1 0 0 0 0
6683	141722 11 0 0 0 0 1 0 0 0 0
6684	141733 11 0 0 0 0 1 0 0 0 0
6694	141744 11 0 0 0 0 1 0 0 0 0
6695	141755 11 0 0 0 0 1 0 0 0 0
6754	141766 11 0 0 0 0 1 0 0 0 0
6755	141777 11 0 0 0 0 1 0 0 0 0
6765	141788 11 0 0 0 0 1 0 0 0 0
6766	141799 11 0 0 0 0 1 0 0 0 0
6776	141810 11 0 0 0 0 1 0 0 0 0
6777	141821 11 0 0 0 0 1 0 0 0 0
6787	141832 11 0 0 0 0 1 0 0 0 0
6788	141843 11 0 0 0 0 1 0 0 0 0
6798	141854 11 0 0 0 0 1 0 0 0 0
6799	141865 11 0 0 0 0 1 0 0 0 0
6855	141876 11 0 0 0 0 1 0 0 0 0
6856	141887 11 0 0 0 0 1 0 0 0 0
6866	141898 11 0 0 0 0 1 0 0 0 0
6867	141909 11 0 0 0 0 1 0 0 0 0
6877	141920 11 0 0 0 0 1 0 0 0 0
6878	141931 11 0 0 0 0 1 0 0 0 0
6888	141942 11 0 0 0 0 1 0 0 0 0
6889	141953 11 0 0 0 0 1 0 0 0 0
6942	141964 11 0 0 0 0 1 0 0 0 0
6943	141975 11 0 0 0 0 1 0 0 0 0
6953	141986 11 0 0 0 0 1 0 0 0 0
6954	141997 11 0 0 0 0 1 0 0 0 0
6964	142008 11 0 0 0 0 1 0 0 0 0
6965	142019 11 0 0 0 0 1 0 0 0 0
6975	142030 11 0 0 0 0 1 0 0 0 0
6976	142041 11 0 0 0 0 1 0 0 0 0
6986	142052 11 0 0 0 0 1 0 0 0 0
6987	142063 11 0 0 0 0 1 0 0 0 0
6997	142074 11 0 0 0 0 1 0 0 0 0
6998	142085 11 0 0 0 0 1 0 0 0 0
7057	142096 11 0 0 0 0 1 0 0 0 0
7058	142107 11 0 0 0 0 1 0 0 0 0
7068	142118 11 0 0 0 0 1 0 0 0 0
7069	142129 11 0 0 0 0 1 0 0 0 0
7079	142140 11 0 0 0 0 1 0 0 0 0
7080	142151 11 0 0 0 0 1 0 0 0 0
7090	142162 11 0 0 0 0 1 0 0 0 0
7091	142173 11 0 0 0 0 1 0 0 0 0
7144	142184 11 0 0 0 0 1 0 0 0 0
7145	142195 11 0 0 0 0 1 0 0 0 0
7155	142206 11 0 0 0 0 1 0 0 0 0
7156	142217 11 0 0 0 0 1 0 0 0 0
7166	142228 11 0 0 0 0 1 0 0 0 0
7167	142239 11 0 0 0 0 1 0 0 0 0
7177	142250 11 0 0 0 0 1 0 0 0 0
7178	142261 11 0 0 0 0 1 0 0 0 0
7188	142272 11 0 0 0 0 1 0 0 0 0
7189	142283 11 0 0 0 0 1 0 0 0 0
7245	142294 11 0 0 0 0 1 0 0 0 0
7246	142305 11 0 0 0 0 1 0 0 0 0
7256	142316 11 0 0 0 0 1 0 0 0 0
7257	142327 11 0 0 0 0 1 0 0 0 0
7267	142338 11 0 0 0 0 1 0 0 0 0
7268	142349 11 0 0 0 0 1 0 0 0 0
7278	142360 11 0 0 0 0 1 0 0 0 0
7279	142371 11 0 0 0 0 1 0 0 0 0
7289	142382 11 0 0 0 0 1 0 0 0 0
7290	142393 11 0 0 0 0 1 0 0 0 0
