                                                                
version 2
run VoIP-DL-0-20190130-17:12:34-7353
attr configname VoIP-DL
attr datetime 20190130-17:12:34
attr experiment VoIP-DL
attr inifile omnetpp.ini
attr iterationvars $numUEs=10
attr iterationvarsf numUEs=10-
attr measurement $numUEs=10
attr network ErlangenLTE
attr numUEs 10
attr processid 7353
attr repetition 0
attr replication #0
attr resultdir results
attr runnumber 0
attr seedset 0
param **.broadcastMessageInterval 1s
param **.car[*].macCellId 1
param **.car[*].masterId 1
param **.channelControl.alpha 1.0
param **.channelControl.carrierFrequency 2100e+6Hz
param **.channelControl.pMax 10W
param **.coreDebug false
param **.deployer.antennaCws "\"2;\""
param **.deployer.numRbDl 25
param **.deployer.numRbUl 25
param **.deployer.positionUpdateInterval 0.001s
param **.deployer.ruRange 50
param **.deployer.ruTxPower "\"50,50,50;\""
param **.dynamicCellAssociation true
param **.eNodeB*.mobility.constraintAreaMaxX 2500m
param **.eNodeB*.mobility.constraintAreaMaxY 2500m
param **.eNodeB*.mobility.constraintAreaMaxZ 0m
param **.eNodeB*.mobility.constraintAreaMinX 0m
param **.eNodeB*.mobility.constraintAreaMinY 0m
param **.eNodeB*.mobility.constraintAreaMinZ 0m
param **.eNodeB*.mobility.initFromDisplayString true
param **.eNodeB1.macCellId 1
param **.eNodeB1.macNodeId 1
param **.eNodeB10.macCellId 10
param **.eNodeB10.macNodeId 10
param **.eNodeB11.macCellId 11
param **.eNodeB11.macNodeId 11
param **.eNodeB12.macCellId 12
param **.eNodeB12.macNodeId 12
param **.eNodeB13.macCellId 13
param **.eNodeB13.macNodeId 13
param **.eNodeB14.macCellId 14
param **.eNodeB14.macNodeId 14
param **.eNodeB15.macCellId 15
param **.eNodeB15.macNodeId 15
param **.eNodeB16.macCellId 16
param **.eNodeB16.macNodeId 16
param **.eNodeB17.macCellId 17
param **.eNodeB17.macNodeId 17
param **.eNodeB18.macCellId 18
param **.eNodeB18.macNodeId 18
param **.eNodeB19.macCellId 19
param **.eNodeB19.macNodeId 19
param **.eNodeB2.macCellId 2
param **.eNodeB2.macNodeId 2
param **.eNodeB20.macCellId 20
param **.eNodeB20.macNodeId 20
param **.eNodeB21.macCellId 21
param **.eNodeB21.macNodeId 21
param **.eNodeB22.macCellId 22
param **.eNodeB22.macNodeId 22
param **.eNodeB23.macCellId 23
param **.eNodeB23.macNodeId 23
param **.eNodeB24.macCellId 24
param **.eNodeB24.macNodeId 24
param **.eNodeB25.macCellId 25
param **.eNodeB25.macNodeId 25
param **.eNodeB26.macCellId 26
param **.eNodeB26.macNodeId 26
param **.eNodeB27.macCellId 27
param **.eNodeB27.macNodeId 27
param **.eNodeB28.macCellId 28
param **.eNodeB28.macNodeId 28
param **.eNodeB29.macCellId 29
param **.eNodeB29.macNodeId 29
param **.eNodeB3.macCellId 3
param **.eNodeB3.macNodeId 3
param **.eNodeB30.macCellId 30
param **.eNodeB30.macNodeId 30
param **.eNodeB31.macCellId 31
param **.eNodeB31.macNodeId 31
param **.eNodeB32.macCellId 32
param **.eNodeB32.macNodeId 32
param **.eNodeB33.macCellId 33
param **.eNodeB33.macNodeId 33
param **.eNodeB34.macCellId 34
param **.eNodeB34.macNodeId 34
param **.eNodeB35.macCellId 35
param **.eNodeB35.macNodeId 35
param **.eNodeB36.macCellId 36
param **.eNodeB36.macNodeId 36
param **.eNodeB37.macCellId 37
param **.eNodeB37.macNodeId 37
param **.eNodeB38.macCellId 38
param **.eNodeB38.macNodeId 38
param **.eNodeB39.macCellId 39
param **.eNodeB39.macNodeId 39
param **.eNodeB4.macCellId 4
param **.eNodeB4.macNodeId 4
param **.eNodeB40.macCellId 40
param **.eNodeB40.macNodeId 40
param **.eNodeB41.macCellId 41
param **.eNodeB41.macNodeId 41
param **.eNodeB42.macCellId 42
param **.eNodeB42.macNodeId 42
param **.eNodeB43.macCellId 43
param **.eNodeB43.macNodeId 43
param **.eNodeB44.macCellId 44
param **.eNodeB44.macNodeId 44
param **.eNodeB45.macCellId 45
param **.eNodeB45.macNodeId 45
param **.eNodeB46.macCellId 46
param **.eNodeB46.macNodeId 46
param **.eNodeB47.macCellId 47
param **.eNodeB47.macNodeId 47
param **.eNodeB48.macCellId 48
param **.eNodeB48.macNodeId 48
param **.eNodeB49.macCellId 49
param **.eNodeB49.macNodeId 49
param **.eNodeB5.macCellId 5
param **.eNodeB5.macNodeId 5
param **.eNodeB50.macCellId 50
param **.eNodeB50.macNodeId 50
param **.eNodeB51.macCellId 51
param **.eNodeB51.macNodeId 51
param **.eNodeB52.macCellId 52
param **.eNodeB52.macNodeId 52
param **.eNodeB53.macCellId 53
param **.eNodeB53.macNodeId 53
param **.eNodeB54.macCellId 54
param **.eNodeB54.macNodeId 54
param **.eNodeB55.macCellId 55
param **.eNodeB55.macNodeId 55
param **.eNodeB56.macCellId 56
param **.eNodeB56.macNodeId 56
param **.eNodeB57.macCellId 57
param **.eNodeB57.macNodeId 57
param **.eNodeB58.macCellId 58
param **.eNodeB58.macNodeId 58
param **.eNodeB59.macCellId 59
param **.eNodeB59.macNodeId 59
param **.eNodeB6.macCellId 6
param **.eNodeB6.macNodeId 6
param **.eNodeB60.macCellId 60
param **.eNodeB60.macNodeId 60
param **.eNodeB61.macCellId 61
param **.eNodeB61.macNodeId 61
param **.eNodeB62.macCellId 62
param **.eNodeB62.macNodeId 62
param **.eNodeB63.macCellId 63
param **.eNodeB63.macNodeId 63
param **.eNodeB64.macCellId 64
param **.eNodeB64.macNodeId 64
param **.eNodeB65.macCellId 65
param **.eNodeB65.macNodeId 65
param **.eNodeB66.macCellId 66
param **.eNodeB66.macNodeId 66
param **.eNodeB7.macCellId 7
param **.eNodeB7.macNodeId 7
param **.eNodeB8.macCellId 8
param **.eNodeB8.macNodeId 8
param **.eNodeB9.macCellId 9
param **.eNodeB9.macNodeId 9
param **.eNodeBCount 66
param **.enableHandover true
param **.fbDelay 1
param **.feedbackComputation "xmldoc(\"config_channel.xml\")"
param **.feedbackGeneratorType "\"IDEAL\""
param **.feedbackType "\"ALLBANDS\""
param **.lteNic.phy.channelModel "xmldoc(\"config_channel.xml\")"
param **.maxHarqRtx 3
param **.numBands 25
param **.numUe 10
param **.rbAllocationType "\"localized\""
param **.routingRecorder.enabled false
param **.sctp.enableHeartbeats false
param **.sctp.nagleEnabled false
param *.annotations.draw true
param *.car[*].configurator.mcastGroups "\"224.0.0.10\""
param *.car[*].mobilityType "\"VeinsInetMobility\""
param *.car[*].numUdpApps 1
param *.car[*].udpApp[0].typename "\"VoIPReceiver\""
param *.eNodeB*.x2App[*].server.localPort "5000 + ancestorIndex(1)"
param *.eNodeB1.numX2Apps 5
param *.eNodeB1.x2App[0].client.connectAddress "\"eNodeB22%x2ppp0\""
param *.eNodeB1.x2App[1].client.connectAddress "\"eNodeB41%x2ppp0\""
param *.eNodeB1.x2App[2].client.connectAddress "\"eNodeB50%x2ppp0\""
param *.eNodeB1.x2App[3].client.connectAddress "\"eNodeB14%x2ppp0\""
param *.eNodeB1.x2App[4].client.connectAddress "\"eNodeB43%x2ppp0\""
param *.eNodeB10.numX2Apps 5
param *.eNodeB10.x2App[0].client.connectAddress "\"eNodeB13%x2ppp1\""
param *.eNodeB10.x2App[1].client.connectAddress "\"eNodeB57%x2ppp0\""
param *.eNodeB10.x2App[2].client.connectAddress "\"eNodeB63%x2ppp0\""
param *.eNodeB10.x2App[3].client.connectAddress "\"eNodeB47%x2ppp2\""
param *.eNodeB10.x2App[4].client.connectAddress "\"eNodeB64%x2ppp0\""
param *.eNodeB11.numX2Apps 3
param *.eNodeB11.x2App[0].client.connectAddress "\"eNodeB22%x2ppp1\""
param *.eNodeB11.x2App[1].client.connectAddress "\"eNodeB40%x2ppp0\""
param *.eNodeB11.x2App[2].client.connectAddress "\"eNodeB54%x2ppp0\""
param *.eNodeB12.numX2Apps 3
param *.eNodeB12.x2App[0].client.connectAddress "\"eNodeB3%x2ppp0\""
param *.eNodeB12.x2App[1].client.connectAddress "\"eNodeB30%x2ppp1\""
param *.eNodeB12.x2App[2].client.connectAddress "\"eNodeB62%x2ppp1\""
param *.eNodeB13.numX2Apps 7
param *.eNodeB13.x2App[0].client.connectAddress "\"eNodeB8%x2ppp1\""
param *.eNodeB13.x2App[1].client.connectAddress "\"eNodeB10%x2ppp0\""
param *.eNodeB13.x2App[2].client.connectAddress "\"eNodeB31%x2ppp1\""
param *.eNodeB13.x2App[3].client.connectAddress "\"eNodeB63%x2ppp1\""
param *.eNodeB13.x2App[4].client.connectAddress "\"eNodeB35%x2ppp0\""
param *.eNodeB13.x2App[5].client.connectAddress "\"eNodeB47%x2ppp3\""
param *.eNodeB13.x2App[6].client.connectAddress "\"eNodeB57%x2ppp1\""
param *.eNodeB14.numX2Apps 4
param *.eNodeB14.x2App[0].client.connectAddress "\"eNodeB1%x2ppp0\""
param *.eNodeB14.x2App[1].client.connectAddress "\"eNodeB41%x2ppp1\""
param *.eNodeB14.x2App[2].client.connectAddress "\"eNodeB66%x2ppp0\""
param *.eNodeB14.x2App[3].client.connectAddress "\"eNodeB22%x2ppp2\""
param *.eNodeB15.numX2Apps 4
param *.eNodeB15.x2App[0].client.connectAddress "\"eNodeB28%x2ppp0\""
param *.eNodeB15.x2App[1].client.connectAddress "\"eNodeB60%x2ppp0\""
param *.eNodeB15.x2App[2].client.connectAddress "\"eNodeB64%x2ppp1\""
param *.eNodeB15.x2App[3].client.connectAddress "\"eNodeB16%x2ppp0\""
param *.eNodeB16.numX2Apps 3
param *.eNodeB16.x2App[0].client.connectAddress "\"eNodeB15%x2ppp0\""
param *.eNodeB16.x2App[1].client.connectAddress "\"eNodeB59%x2ppp0\""
param *.eNodeB16.x2App[2].client.connectAddress "\"eNodeB61%x2ppp0\""
param *.eNodeB17.numX2Apps 4
param *.eNodeB17.x2App[0].client.connectAddress "\"eNodeB4%x2ppp0\""
param *.eNodeB17.x2App[1].client.connectAddress "\"eNodeB20%x2ppp1\""
param *.eNodeB17.x2App[2].client.connectAddress "\"eNodeB49%x2ppp1\""
param *.eNodeB17.x2App[3].client.connectAddress "\"eNodeB56%x2ppp0\""
param *.eNodeB18.numX2Apps 3
param *.eNodeB18.x2App[0].client.connectAddress "\"eNodeB19%x2ppp0\""
param *.eNodeB18.x2App[1].client.connectAddress "\"eNodeB40%x2ppp1\""
param *.eNodeB18.x2App[2].client.connectAddress "\"eNodeB48%x2ppp0\""
param *.eNodeB19.numX2Apps 3
param *.eNodeB19.x2App[0].client.connectAddress "\"eNodeB18%x2ppp0\""
param *.eNodeB19.x2App[1].client.connectAddress "\"eNodeB35%x2ppp1\""
param *.eNodeB19.x2App[2].client.connectAddress "\"eNodeB48%x2ppp1\""
param *.eNodeB2.numX2Apps 3
param *.eNodeB2.x2App[0].client.connectAddress "\"eNodeB5%x2ppp0\""
param *.eNodeB2.x2App[1].client.connectAddress "\"eNodeB7%x2ppp0\""
param *.eNodeB2.x2App[2].client.connectAddress "\"eNodeB32%x2ppp0\""
param *.eNodeB20.numX2Apps 4
param *.eNodeB20.x2App[0].client.connectAddress "\"eNodeB4%x2ppp1\""
param *.eNodeB20.x2App[1].client.connectAddress "\"eNodeB17%x2ppp1\""
param *.eNodeB20.x2App[2].client.connectAddress "\"eNodeB49%x2ppp2\""
param *.eNodeB20.x2App[3].client.connectAddress "\"eNodeB55%x2ppp1\""
param *.eNodeB21.numX2Apps 3
param *.eNodeB21.x2App[0].client.connectAddress "\"eNodeB23%x2ppp0\""
param *.eNodeB21.x2App[1].client.connectAddress "\"eNodeB36%x2ppp0\""
param *.eNodeB21.x2App[2].client.connectAddress "\"eNodeB38%x2ppp0\""
param *.eNodeB22.numX2Apps 6
param *.eNodeB22.x2App[0].client.connectAddress "\"eNodeB1%x2ppp1\""
param *.eNodeB22.x2App[1].client.connectAddress "\"eNodeB11%x2ppp0\""
param *.eNodeB22.x2App[2].client.connectAddress "\"eNodeB14%x2ppp1\""
param *.eNodeB22.x2App[3].client.connectAddress "\"eNodeB54%x2ppp1\""
param *.eNodeB22.x2App[4].client.connectAddress "\"eNodeB43%x2ppp1\""
param *.eNodeB22.x2App[5].client.connectAddress "\"eNodeB66%x2ppp1\""
param *.eNodeB23.numX2Apps 4
param *.eNodeB23.x2App[0].client.connectAddress "\"eNodeB21%x2ppp0\""
param *.eNodeB23.x2App[1].client.connectAddress "\"eNodeB36%x2ppp1\""
param *.eNodeB23.x2App[2].client.connectAddress "\"eNodeB38%x2ppp1\""
param *.eNodeB23.x2App[3].client.connectAddress "\"eNodeB44%x2ppp0\""
param *.eNodeB24.numX2Apps 4
param *.eNodeB24.x2App[0].client.connectAddress "\"eNodeB59%x2ppp1\""
param *.eNodeB24.x2App[1].client.connectAddress "\"eNodeB60%x2ppp1\""
param *.eNodeB24.x2App[2].client.connectAddress "\"eNodeB65%x2ppp0\""
param *.eNodeB24.x2App[3].client.connectAddress "\"eNodeB39%x2ppp0\""
param *.eNodeB25.numX2Apps 3
param *.eNodeB25.x2App[0].client.connectAddress "\"eNodeB5%x2ppp1\""
param *.eNodeB25.x2App[1].client.connectAddress "\"eNodeB46%x2ppp1\""
param *.eNodeB25.x2App[2].client.connectAddress "\"eNodeB52%x2ppp0\""
param *.eNodeB26.numX2Apps 3
param *.eNodeB26.x2App[0].client.connectAddress "\"eNodeB39%x2ppp1\""
param *.eNodeB26.x2App[1].client.connectAddress "\"eNodeB59%x2ppp2\""
param *.eNodeB26.x2App[2].client.connectAddress "\"eNodeB61%x2ppp1\""
param *.eNodeB27.numX2Apps 3
param *.eNodeB27.x2App[0].client.connectAddress "\"eNodeB9%x2ppp0\""
param *.eNodeB27.x2App[1].client.connectAddress "\"eNodeB34%x2ppp2\""
param *.eNodeB27.x2App[2].client.connectAddress "\"eNodeB58%x2ppp1\""
param *.eNodeB28.numX2Apps 4
param *.eNodeB28.x2App[0].client.connectAddress "\"eNodeB15%x2ppp1\""
param *.eNodeB28.x2App[1].client.connectAddress "\"eNodeB60%x2ppp2\""
param *.eNodeB28.x2App[2].client.connectAddress "\"eNodeB64%x2ppp2\""
param *.eNodeB28.x2App[3].client.connectAddress "\"eNodeB65%x2ppp1\""
param *.eNodeB29.numX2Apps 3
param *.eNodeB29.x2App[0].client.connectAddress "\"eNodeB51%x2ppp0\""
param *.eNodeB29.x2App[1].client.connectAddress "\"eNodeB52%x2ppp1\""
param *.eNodeB29.x2App[2].client.connectAddress "\"eNodeB53%x2ppp0\""
param *.eNodeB3.numX2Apps 6
param *.eNodeB3.x2App[0].client.connectAddress "\"eNodeB12%x2ppp0\""
param *.eNodeB3.x2App[1].client.connectAddress "\"eNodeB46%x2ppp0\""
param *.eNodeB3.x2App[2].client.connectAddress "\"eNodeB62%x2ppp0\""
param *.eNodeB3.x2App[3].client.connectAddress "\"eNodeB30%x2ppp0\""
param *.eNodeB3.x2App[4].client.connectAddress "\"eNodeB32%x2ppp1\""
param *.eNodeB3.x2App[5].client.connectAddress "\"eNodeB55%x2ppp0\""
param *.eNodeB30.numX2Apps 4
param *.eNodeB30.x2App[0].client.connectAddress "\"eNodeB12%x2ppp1\""
param *.eNodeB30.x2App[1].client.connectAddress "\"eNodeB3%x2ppp1\""
param *.eNodeB30.x2App[2].client.connectAddress "\"eNodeB32%x2ppp2\""
param *.eNodeB30.x2App[3].client.connectAddress "\"eNodeB62%x2ppp2\""
param *.eNodeB31.numX2Apps 4
param *.eNodeB31.x2App[0].client.connectAddress "\"eNodeB8%x2ppp2\""
param *.eNodeB31.x2App[1].client.connectAddress "\"eNodeB13%x2ppp2\""
param *.eNodeB31.x2App[2].client.connectAddress "\"eNodeB63%x2ppp2\""
param *.eNodeB31.x2App[3].client.connectAddress "\"eNodeB35%x2ppp2\""
param *.eNodeB32.numX2Apps 4
param *.eNodeB32.x2App[0].client.connectAddress "\"eNodeB2%x2ppp2\""
param *.eNodeB32.x2App[1].client.connectAddress "\"eNodeB30%x2ppp2\""
param *.eNodeB32.x2App[2].client.connectAddress "\"eNodeB3%x2ppp2\""
param *.eNodeB32.x2App[3].client.connectAddress "\"eNodeB46%x2ppp2\""
param *.eNodeB33.numX2Apps 3
param *.eNodeB33.x2App[0].client.connectAddress "\"eNodeB6%x2ppp0\""
param *.eNodeB33.x2App[1].client.connectAddress "\"eNodeB45%x2ppp1\""
param *.eNodeB33.x2App[2].client.connectAddress "\"eNodeB51%x2ppp1\""
param *.eNodeB34.numX2Apps 4
param *.eNodeB34.x2App[0].client.connectAddress "\"eNodeB5%x2ppp2\""
param *.eNodeB34.x2App[1].client.connectAddress "\"eNodeB9%x2ppp1\""
param *.eNodeB34.x2App[2].client.connectAddress "\"eNodeB27%x2ppp1\""
param *.eNodeB34.x2App[3].client.connectAddress "\"eNodeB53%x2ppp1\""
param *.eNodeB35.numX2Apps 4
param *.eNodeB35.x2App[0].client.connectAddress "\"eNodeB19%x2ppp1\""
param *.eNodeB35.x2App[1].client.connectAddress "\"eNodeB13%x2ppp3\""
param *.eNodeB35.x2App[2].client.connectAddress "\"eNodeB31%x2ppp2\""
param *.eNodeB35.x2App[3].client.connectAddress "\"eNodeB63%x2ppp3\""
param *.eNodeB36.numX2Apps 4
param *.eNodeB36.x2App[0].client.connectAddress "\"eNodeB21%x2ppp1\""
param *.eNodeB36.x2App[1].client.connectAddress "\"eNodeB23%x2ppp1\""
param *.eNodeB36.x2App[2].client.connectAddress "\"eNodeB38%x2ppp2\""
param *.eNodeB36.x2App[3].client.connectAddress "\"eNodeB44%x2ppp1\""
param *.eNodeB37.numX2Apps 4
param *.eNodeB37.x2App[0].client.connectAddress "\"eNodeB6%x2ppp1\""
param *.eNodeB37.x2App[1].client.connectAddress "\"eNodeB42%x2ppp1\""
param *.eNodeB37.x2App[2].client.connectAddress "\"eNodeB45%x2ppp2\""
param *.eNodeB37.x2App[3].client.connectAddress "\"eNodeB50%x2ppp2\""
param *.eNodeB38.numX2Apps 4
param *.eNodeB38.x2App[0].client.connectAddress "\"eNodeB21%x2ppp2\""
param *.eNodeB38.x2App[1].client.connectAddress "\"eNodeB23%x2ppp2\""
param *.eNodeB38.x2App[2].client.connectAddress "\"eNodeB36%x2ppp2\""
param *.eNodeB38.x2App[3].client.connectAddress "\"eNodeB44%x2ppp2\""
param *.eNodeB39.numX2Apps 4
param *.eNodeB39.x2App[0].client.connectAddress "\"eNodeB26%x2ppp0\""
param *.eNodeB39.x2App[1].client.connectAddress "\"eNodeB24%x2ppp0\""
param *.eNodeB39.x2App[2].client.connectAddress "\"eNodeB59%x2ppp3\""
param *.eNodeB39.x2App[3].client.connectAddress "\"eNodeB61%x2ppp2\""
param *.eNodeB4.numX2Apps 3
param *.eNodeB4.x2App[0].client.connectAddress "\"eNodeB17%x2ppp0\""
param *.eNodeB4.x2App[1].client.connectAddress "\"eNodeB20%x2ppp0\""
param *.eNodeB4.x2App[2].client.connectAddress "\"eNodeB49%x2ppp0\""
param *.eNodeB40.numX2Apps 4
param *.eNodeB40.x2App[0].client.connectAddress "\"eNodeB11%x2ppp1\""
param *.eNodeB40.x2App[1].client.connectAddress "\"eNodeB18%x2ppp1\""
param *.eNodeB40.x2App[2].client.connectAddress "\"eNodeB54%x2ppp2\""
param *.eNodeB40.x2App[3].client.connectAddress "\"eNodeB48%x2ppp2\""
param *.eNodeB41.numX2Apps 4
param *.eNodeB41.x2App[0].client.connectAddress "\"eNodeB1%x2ppp2\""
param *.eNodeB41.x2App[1].client.connectAddress "\"eNodeB14%x2ppp2\""
param *.eNodeB41.x2App[2].client.connectAddress "\"eNodeB50%x2ppp3\""
param *.eNodeB41.x2App[3].client.connectAddress "\"eNodeB66%x2ppp2\""
param *.eNodeB42.numX2Apps 3
param *.eNodeB42.x2App[0].client.connectAddress "\"eNodeB37%x2ppp1\""
param *.eNodeB42.x2App[1].client.connectAddress "\"eNodeB6%x2ppp2\""
param *.eNodeB42.x2App[2].client.connectAddress "\"eNodeB50%x2ppp4\""
param *.eNodeB43.numX2Apps 3
param *.eNodeB43.x2App[0].client.connectAddress "\"eNodeB1%x2ppp3\""
param *.eNodeB43.x2App[1].client.connectAddress "\"eNodeB22%x2ppp3\""
param *.eNodeB43.x2App[2].client.connectAddress "\"eNodeB50%x2ppp5\""
param *.eNodeB44.numX2Apps 3
param *.eNodeB44.x2App[0].client.connectAddress "\"eNodeB23%x2ppp3\""
param *.eNodeB44.x2App[1].client.connectAddress "\"eNodeB36%x2ppp3\""
param *.eNodeB44.x2App[2].client.connectAddress "\"eNodeB38%x2ppp3\""
param *.eNodeB45.numX2Apps 4
param *.eNodeB45.x2App[0].client.connectAddress "\"eNodeB6%x2ppp3\""
param *.eNodeB45.x2App[1].client.connectAddress "\"eNodeB33%x2ppp1\""
param *.eNodeB45.x2App[2].client.connectAddress "\"eNodeB37%x2ppp2\""
param *.eNodeB45.x2App[3].client.connectAddress "\"eNodeB50%x2ppp6\""
param *.eNodeB46.numX2Apps 4
param *.eNodeB46.x2App[0].client.connectAddress "\"eNodeB3%x2ppp3\""
param *.eNodeB46.x2App[1].client.connectAddress "\"eNodeB25%x2ppp1\""
param *.eNodeB46.x2App[2].client.connectAddress "\"eNodeB32%x2ppp3\""
param *.eNodeB46.x2App[3].client.connectAddress "\"eNodeB55%x2ppp2\""
param *.eNodeB47.numX2Apps 4
param *.eNodeB47.x2App[0].client.connectAddress "\"eNodeB7%x2ppp2\""
param *.eNodeB47.x2App[1].client.connectAddress "\"eNodeB8%x2ppp3\""
param *.eNodeB47.x2App[2].client.connectAddress "\"eNodeB10%x2ppp1\""
param *.eNodeB47.x2App[3].client.connectAddress "\"eNodeB13%x2ppp4\""
param *.eNodeB48.numX2Apps 3
param *.eNodeB48.x2App[0].client.connectAddress "\"eNodeB18%x2ppp2\""
param *.eNodeB48.x2App[1].client.connectAddress "\"eNodeB19%x2ppp2\""
param *.eNodeB48.x2App[2].client.connectAddress "\"eNodeB40%x2ppp2\""
param *.eNodeB49.numX2Apps 4
param *.eNodeB49.x2App[0].client.connectAddress "\"eNodeB4%x2ppp2\""
param *.eNodeB49.x2App[1].client.connectAddress "\"eNodeB17%x2ppp2\""
param *.eNodeB49.x2App[2].client.connectAddress "\"eNodeB20%x2ppp2\""
param *.eNodeB49.x2App[3].client.connectAddress "\"eNodeB56%x2ppp1\""
param *.eNodeB5.numX2Apps 3
param *.eNodeB5.x2App[0].client.connectAddress "\"eNodeB2%x2ppp0\""
param *.eNodeB5.x2App[1].client.connectAddress "\"eNodeB25%x2ppp0\""
param *.eNodeB5.x2App[2].client.connectAddress "\"eNodeB34%x2ppp0\""
param *.eNodeB50.numX2Apps 7
param *.eNodeB50.x2App[0].client.connectAddress "\"eNodeB1%x2ppp4\""
param *.eNodeB50.x2App[1].client.connectAddress "\"eNodeB6%x2ppp4\""
param *.eNodeB50.x2App[2].client.connectAddress "\"eNodeB41%x2ppp2\""
param *.eNodeB50.x2App[3].client.connectAddress "\"eNodeB42%x2ppp2\""
param *.eNodeB50.x2App[4].client.connectAddress "\"eNodeB43%x2ppp2\""
param *.eNodeB50.x2App[5].client.connectAddress "\"eNodeB45%x2ppp3\""
param *.eNodeB50.x2App[6].client.connectAddress "\"eNodeB37%x2ppp3\""
param *.eNodeB51.numX2Apps 4
param *.eNodeB51.x2App[0].client.connectAddress "\"eNodeB29%x2ppp0\""
param *.eNodeB51.x2App[1].client.connectAddress "\"eNodeB33%x2ppp2\""
param *.eNodeB51.x2App[2].client.connectAddress "\"eNodeB52%x2ppp2\""
param *.eNodeB51.x2App[3].client.connectAddress "\"eNodeB56%x2ppp2\""
param *.eNodeB52.numX2Apps 4
param *.eNodeB52.x2App[0].client.connectAddress "\"eNodeB25%x2ppp2\""
param *.eNodeB52.x2App[1].client.connectAddress "\"eNodeB29%x2ppp1\""
param *.eNodeB52.x2App[2].client.connectAddress "\"eNodeB51%x2ppp2\""
param *.eNodeB52.x2App[3].client.connectAddress "\"eNodeB53%x2ppp2\""
param *.eNodeB53.numX2Apps 3
param *.eNodeB53.x2App[0].client.connectAddress "\"eNodeB29%x2ppp2\""
param *.eNodeB53.x2App[1].client.connectAddress "\"eNodeB34%x2ppp3\""
param *.eNodeB53.x2App[2].client.connectAddress "\"eNodeB52%x2ppp3\""
param *.eNodeB54.numX2Apps 3
param *.eNodeB54.x2App[0].client.connectAddress "\"eNodeB11%x2ppp2\""
param *.eNodeB54.x2App[1].client.connectAddress "\"eNodeB22%x2ppp4\""
param *.eNodeB54.x2App[2].client.connectAddress "\"eNodeB40%x2ppp3\""
param *.eNodeB55.numX2Apps 3
param *.eNodeB55.x2App[0].client.connectAddress "\"eNodeB46%x2ppp3\""
param *.eNodeB55.x2App[1].client.connectAddress "\"eNodeB3%x2ppp4\""
param *.eNodeB55.x2App[2].client.connectAddress "\"eNodeB20%x2ppp3\""
param *.eNodeB56.numX2Apps 3
param *.eNodeB56.x2App[0].client.connectAddress "\"eNodeB17%x2ppp3\""
param *.eNodeB56.x2App[1].client.connectAddress "\"eNodeB49%x2ppp3\""
param *.eNodeB56.x2App[2].client.connectAddress "\"eNodeB51%x2ppp3\""
param *.eNodeB57.numX2Apps 3
param *.eNodeB57.x2App[0].client.connectAddress "\"eNodeB10%x2ppp2\""
param *.eNodeB57.x2App[1].client.connectAddress "\"eNodeB13%x2ppp5\""
param *.eNodeB57.x2App[2].client.connectAddress "\"eNodeB63%x2ppp4\""
param *.eNodeB58.numX2Apps 3
param *.eNodeB58.x2App[0].client.connectAddress "\"eNodeB9%x2ppp2\""
param *.eNodeB58.x2App[1].client.connectAddress "\"eNodeB27%x2ppp2\""
param *.eNodeB58.x2App[2].client.connectAddress "\"eNodeB66%x2ppp3\""
param *.eNodeB59.numX2Apps 7
param *.eNodeB59.x2App[0].client.connectAddress "\"eNodeB16%x2ppp1\""
param *.eNodeB59.x2App[1].client.connectAddress "\"eNodeB24%x2ppp1\""
param *.eNodeB59.x2App[2].client.connectAddress "\"eNodeB26%x2ppp1\""
param *.eNodeB59.x2App[3].client.connectAddress "\"eNodeB39%x2ppp2\""
param *.eNodeB59.x2App[4].client.connectAddress "\"eNodeB60%x2ppp3\""
param *.eNodeB59.x2App[5].client.connectAddress "\"eNodeB65%x2ppp2\""
param *.eNodeB59.x2App[6].client.connectAddress "\"eNodeB61%x2ppp3\""
param *.eNodeB6.numX2Apps 5
param *.eNodeB6.x2App[0].client.connectAddress "\"eNodeB37%x2ppp0\""
param *.eNodeB6.x2App[1].client.connectAddress "\"eNodeB45%x2ppp0\""
param *.eNodeB6.x2App[2].client.connectAddress "\"eNodeB50%x2ppp1\""
param *.eNodeB6.x2App[3].client.connectAddress "\"eNodeB33%x2ppp0\""
param *.eNodeB6.x2App[4].client.connectAddress "\"eNodeB42%x2ppp0\""
param *.eNodeB60.numX2Apps 5
param *.eNodeB60.x2App[0].client.connectAddress "\"eNodeB15%x2ppp2\""
param *.eNodeB60.x2App[1].client.connectAddress "\"eNodeB24%x2ppp2\""
param *.eNodeB60.x2App[2].client.connectAddress "\"eNodeB28%x2ppp1\""
param *.eNodeB60.x2App[3].client.connectAddress "\"eNodeB59%x2ppp4\""
param *.eNodeB60.x2App[4].client.connectAddress "\"eNodeB65%x2ppp3\""
param *.eNodeB61.numX2Apps 4
param *.eNodeB61.x2App[0].client.connectAddress "\"eNodeB16%x2ppp2\""
param *.eNodeB61.x2App[1].client.connectAddress "\"eNodeB26%x2ppp2\""
param *.eNodeB61.x2App[2].client.connectAddress "\"eNodeB39%x2ppp3\""
param *.eNodeB61.x2App[3].client.connectAddress "\"eNodeB59%x2ppp5\""
param *.eNodeB62.numX2Apps 3
param *.eNodeB62.x2App[0].client.connectAddress "\"eNodeB3%x2ppp5\""
param *.eNodeB62.x2App[1].client.connectAddress "\"eNodeB12%x2ppp2\""
param *.eNodeB62.x2App[2].client.connectAddress "\"eNodeB30%x2ppp3\""
param *.eNodeB63.numX2Apps 5
param *.eNodeB63.x2App[0].client.connectAddress "\"eNodeB10%x2ppp3\""
param *.eNodeB63.x2App[1].client.connectAddress "\"eNodeB13%x2ppp6\""
param *.eNodeB63.x2App[2].client.connectAddress "\"eNodeB31%x2ppp3\""
param *.eNodeB63.x2App[3].client.connectAddress "\"eNodeB35%x2ppp3\""
param *.eNodeB63.x2App[4].client.connectAddress "\"eNodeB57%x2ppp2\""
param *.eNodeB64.numX2Apps 3
param *.eNodeB64.x2App[0].client.connectAddress "\"eNodeB15%x2ppp3\""
param *.eNodeB64.x2App[1].client.connectAddress "\"eNodeB28%x2ppp2\""
param *.eNodeB64.x2App[2].client.connectAddress "\"eNodeB10%x2ppp4\""
param *.eNodeB65.numX2Apps 4
param *.eNodeB65.x2App[0].client.connectAddress "\"eNodeB24%x2ppp3\""
param *.eNodeB65.x2App[1].client.connectAddress "\"eNodeB59%x2ppp6\""
param *.eNodeB65.x2App[2].client.connectAddress "\"eNodeB60%x2ppp4\""
param *.eNodeB65.x2App[3].client.connectAddress "\"eNodeB28%x2ppp3\""
param *.eNodeB66.numX2Apps 4
param *.eNodeB66.x2App[0].client.connectAddress "\"eNodeB14%x2ppp3\""
param *.eNodeB66.x2App[1].client.connectAddress "\"eNodeB58%x2ppp2\""
param *.eNodeB66.x2App[2].client.connectAddress "\"eNodeB22%x2ppp5\""
param *.eNodeB66.x2App[3].client.connectAddress "\"eNodeB41%x2ppp3\""
param *.eNodeB7.numX2Apps 3
param *.eNodeB7.x2App[0].client.connectAddress "\"eNodeB2%x2ppp1\""
param *.eNodeB7.x2App[1].client.connectAddress "\"eNodeB8%x2ppp0\""
param *.eNodeB7.x2App[2].client.connectAddress "\"eNodeB47%x2ppp0\""
param *.eNodeB8.numX2Apps 4
param *.eNodeB8.x2App[0].client.connectAddress "\"eNodeB7%x2ppp1\""
param *.eNodeB8.x2App[1].client.connectAddress "\"eNodeB13%x2ppp0\""
param *.eNodeB8.x2App[2].client.connectAddress "\"eNodeB31%x2ppp0\""
param *.eNodeB8.x2App[3].client.connectAddress "\"eNodeB47%x2ppp1\""
param *.eNodeB9.numX2Apps 3
param *.eNodeB9.x2App[0].client.connectAddress "\"eNodeB27%x2ppp0\""
param *.eNodeB9.x2App[1].client.connectAddress "\"eNodeB34%x2ppp1\""
param *.eNodeB9.x2App[2].client.connectAddress "\"eNodeB58%x2ppp0\""
param *.manager.autoShutdown true
param *.manager.host "\"localhost\""
param *.manager.launchConfig "xmldoc(\"erlangen.launchd.xml\")"
param *.manager.port 9999
param *.manager.updateInterval 1s
param *.obstacles.debug false
param *.obstacles.obstacles "xmldoc(\"config.xml\", \"//AnalogueModel[@type='SimpleObstacleShadowing']/obstacles\")"
param *.playgroundSizeX 2600m
param *.playgroundSizeY 2600m
param *.playgroundSizeZ 50m
param *.server.numUdpApps 250
param *.server.udpApp[*].destAddress "\"car[\" + string(ancestorIndex(0)) + \"]\""
param *.server.udpApp[*].localPort "3000 + ancestorIndex(0)"
param *.server.udpApp[*].startingTime 0.05s
param *.server.udpApp[*].typename "\"VoIPSender\""
param *.veinsManager.launchConfig "xmldoc(\"erlangen.launchd.xml\")"
param *.veinsManager.moduleDisplayString "\"\""
param *.veinsManager.moduleName "\"car\""
param *.veinsManager.moduleType "\"lte.corenetwork.nodes.cars.Car\""
param *.veinsManager.updateInterval 0.1s

vector 8  ErlangenLTE.server.ppp[0].queue  queueLength:vector  ETV
attr interpolationmode  sample-hold
attr title  "queue length, vector"
vector 9  ErlangenLTE.server.ppp[0].ppp  txState:vector  ETV
attr interpolationmode  sample-hold
attr title  "tx state, vector"
vector 279  ErlangenLTE.router.ppp[0].queue  queueLength:vector  ETV
attr interpolationmode  sample-hold
attr title  "queue length, vector"
vector 280  ErlangenLTE.router.ppp[0].ppp  txState:vector  ETV
attr interpolationmode  sample-hold
attr title  "tx state, vector"
vector 290  ErlangenLTE.router.ppp[1].queue  queueLength:vector  ETV
attr interpolationmode  sample-hold
attr title  "queue length, vector"
vector 291  ErlangenLTE.router.ppp[1].ppp  txState:vector  ETV
attr interpolationmode  sample-hold
attr title  "tx state, vector"
vector 306  ErlangenLTE.pgw.ppp[0].queue  queueLength:vector  ETV
attr interpolationmode  sample-hold
attr title  "queue length, vector"
vector 307  ErlangenLTE.pgw.ppp[0].ppp  txState:vector  ETV
attr interpolationmode  sample-hold
attr title  "tx state, vector"
vector 317  ErlangenLTE.pgw.ppp[1].queue  queueLength:vector  ETV
attr interpolationmode  sample-hold
attr title  "queue length, vector"
vector 318  ErlangenLTE.pgw.ppp[1].ppp  txState:vector  ETV
attr interpolationmode  sample-hold
attr title  "tx state, vector"
vector 328  ErlangenLTE.pgw.ppp[2].queue  queueLength:vector  ETV
attr interpolationmode  sample-hold
attr title  "queue length, vector"
vector 329  ErlangenLTE.pgw.ppp[2].ppp  txState:vector  ETV
attr interpolationmode  sample-hold
attr title  "tx state, vector"
vector 339  ErlangenLTE.pgw.ppp[3].queue  queueLength:vector  ETV
attr interpolationmode  sample-hold
attr title  "queue length, vector"
vector 340  ErlangenLTE.pgw.ppp[3].ppp  txState:vector  ETV
attr interpolationmode  sample-hold
attr title  "tx state, vector"
vector 350  ErlangenLTE.pgw.ppp[4].queue  queueLength:vector  ETV
attr interpolationmode  sample-hold
attr title  "queue length, vector"
vector 351  ErlangenLTE.pgw.ppp[4].ppp  txState:vector  ETV
attr interpolationmode  sample-hold
attr title  "tx state, vector"
vector 361  ErlangenLTE.pgw.ppp[5].queue  queueLength:vector  ETV
attr interpolationmode  sample-hold
attr title  "queue length, vector"
vector 362  ErlangenLTE.pgw.ppp[5].ppp  txState:vector  ETV
attr interpolationmode  sample-hold
attr title  "tx state, vector"
vector 372  ErlangenLTE.pgw.ppp[6].queue  queueLength:vector  ETV
attr interpolationmode  sample-hold
attr title  "queue length, vector"
vector 373  ErlangenLTE.pgw.ppp[6].ppp  txState:vector  ETV
attr interpolationmode  sample-hold
attr title  "tx state, vector"
vector 383  ErlangenLTE.pgw.ppp[7].queue  queueLength:vector  ETV
attr interpolationmode  sample-hold
attr title  "queue length, vector"
vector 384  ErlangenLTE.pgw.ppp[7].ppp  txState:vector  ETV
attr interpolationmode  sample-hold
attr title  "tx state, vector"
vector 394  ErlangenLTE.pgw.ppp[8].queue  queueLength:vector  ETV
attr interpolationmode  sample-hold
attr title  "queue length, vector"
vector 395  ErlangenLTE.pgw.ppp[8].ppp  txState:vector  ETV
attr interpolationmode  sample-hold
attr title  "tx state, vector"
vector 405  ErlangenLTE.pgw.ppp[9].queue  queueLength:vector  ETV
attr interpolationmode  sample-hold
attr title  "queue length, vector"
vector 406  ErlangenLTE.pgw.ppp[9].ppp  txState:vector  ETV
attr interpolationmode  sample-hold
attr title  "tx state, vector"
vector 416  ErlangenLTE.pgw.ppp[10].queue  queueLength:vector  ETV
attr interpolationmode  sample-hold
attr title  "queue length, vector"
vector 417  ErlangenLTE.pgw.ppp[10].ppp  txState:vector  ETV
attr interpolationmode  sample-hold
attr title  "tx state, vector"
vector 427  ErlangenLTE.pgw.ppp[11].queue  queueLength:vector  ETV
attr interpolationmode  sample-hold
attr title  "queue length, vector"
vector 428  ErlangenLTE.pgw.ppp[11].ppp  txState:vector  ETV
attr interpolationmode  sample-hold
attr title  "tx state, vector"
vector 438  ErlangenLTE.pgw.ppp[12].queue  queueLength:vector  ETV
attr interpolationmode  sample-hold
attr title  "queue length, vector"
vector 439  ErlangenLTE.pgw.ppp[12].ppp  txState:vector  ETV
attr interpolationmode  sample-hold
attr title  "tx state, vector"
vector 449  ErlangenLTE.pgw.ppp[13].queue  queueLength:vector  ETV
attr interpolationmode  sample-hold
attr title  "queue length, vector"
vector 450  ErlangenLTE.pgw.ppp[13].ppp  txState:vector  ETV
attr interpolationmode  sample-hold
attr title  "tx state, vector"
vector 460  ErlangenLTE.pgw.ppp[14].queue  queueLength:vector  ETV
attr interpolationmode  sample-hold
attr title  "queue length, vector"
vector 461  ErlangenLTE.pgw.ppp[14].ppp  txState:vector  ETV
attr interpolationmode  sample-hold
attr title  "tx state, vector"
vector 471  ErlangenLTE.pgw.ppp[15].queue  queueLength:vector  ETV
attr interpolationmode  sample-hold
attr title  "queue length, vector"
vector 472  ErlangenLTE.pgw.ppp[15].ppp  txState:vector  ETV
attr interpolationmode  sample-hold
attr title  "tx state, vector"
vector 482  ErlangenLTE.pgw.ppp[16].queue  queueLength:vector  ETV
attr interpolationmode  sample-hold
attr title  "queue length, vector"
vector 483  ErlangenLTE.pgw.ppp[16].ppp  txState:vector  ETV
attr interpolationmode  sample-hold
attr title  "tx state, vector"
vector 493  ErlangenLTE.pgw.ppp[17].queue  queueLength:vector  ETV
attr interpolationmode  sample-hold
attr title  "queue length, vector"
vector 494  ErlangenLTE.pgw.ppp[17].ppp  txState:vector  ETV
attr interpolationmode  sample-hold
attr title  "tx state, vector"
vector 504  ErlangenLTE.pgw.ppp[18].queue  queueLength:vector  ETV
attr interpolationmode  sample-hold
attr title  "queue length, vector"
vector 505  ErlangenLTE.pgw.ppp[18].ppp  txState:vector  ETV
attr interpolationmode  sample-hold
attr title  "tx state, vector"
vector 515  ErlangenLTE.pgw.ppp[19].queue  queueLength:vector  ETV
attr interpolationmode  sample-hold
attr title  "queue length, vector"
vector 516  ErlangenLTE.pgw.ppp[19].ppp  txState:vector  ETV
attr interpolationmode  sample-hold
attr title  "tx state, vector"
vector 526  ErlangenLTE.pgw.ppp[20].queue  queueLength:vector  ETV
attr interpolationmode  sample-hold
attr title  "queue length, vector"
vector 527  ErlangenLTE.pgw.ppp[20].ppp  txState:vector  ETV
attr interpolationmode  sample-hold
attr title  "tx state, vector"
vector 537  ErlangenLTE.pgw.ppp[21].queue  queueLength:vector  ETV
attr interpolationmode  sample-hold
attr title  "queue length, vector"
vector 538  ErlangenLTE.pgw.ppp[21].ppp  txState:vector  ETV
attr interpolationmode  sample-hold
attr title  "tx state, vector"
vector 548  ErlangenLTE.pgw.ppp[22].queue  queueLength:vector  ETV
attr interpolationmode  sample-hold
attr title  "queue length, vector"
vector 549  ErlangenLTE.pgw.ppp[22].ppp  txState:vector  ETV
attr interpolationmode  sample-hold
attr title  "tx state, vector"
vector 559  ErlangenLTE.pgw.ppp[23].queue  queueLength:vector  ETV
attr interpolationmode  sample-hold
attr title  "queue length, vector"
vector 560  ErlangenLTE.pgw.ppp[23].ppp  txState:vector  ETV
attr interpolationmode  sample-hold
attr title  "tx state, vector"
vector 570  ErlangenLTE.pgw.ppp[24].queue  queueLength:vector  ETV
attr interpolationmode  sample-hold
attr title  "queue length, vector"
vector 571  ErlangenLTE.pgw.ppp[24].ppp  txState:vector  ETV
attr interpolationmode  sample-hold
attr title  "tx state, vector"
vector 581  ErlangenLTE.pgw.ppp[25].queue  queueLength:vector  ETV
attr interpolationmode  sample-hold
attr title  "queue length, vector"
vector 582  ErlangenLTE.pgw.ppp[25].ppp  txState:vector  ETV
attr interpolationmode  sample-hold
attr title  "tx state, vector"
vector 592  ErlangenLTE.pgw.ppp[26].queue  queueLength:vector  ETV
attr interpolationmode  sample-hold
attr title  "queue length, vector"
vector 593  ErlangenLTE.pgw.ppp[26].ppp  txState:vector  ETV
attr interpolationmode  sample-hold
attr title  "tx state, vector"
vector 603  ErlangenLTE.pgw.ppp[27].queue  queueLength:vector  ETV
attr interpolationmode  sample-hold
attr title  "queue length, vector"
vector 604  ErlangenLTE.pgw.ppp[27].ppp  txState:vector  ETV
attr interpolationmode  sample-hold
attr title  "tx state, vector"
vector 614  ErlangenLTE.pgw.ppp[28].queue  queueLength:vector  ETV
attr interpolationmode  sample-hold
attr title  "queue length, vector"
vector 615  ErlangenLTE.pgw.ppp[28].ppp  txState:vector  ETV
attr interpolationmode  sample-hold
attr title  "tx state, vector"
vector 625  ErlangenLTE.pgw.ppp[29].queue  queueLength:vector  ETV
attr interpolationmode  sample-hold
attr title  "queue length, vector"
vector 626  ErlangenLTE.pgw.ppp[29].ppp  txState:vector  ETV
attr interpolationmode  sample-hold
attr title  "tx state, vector"
vector 636  ErlangenLTE.pgw.ppp[30].queue  queueLength:vector  ETV
attr interpolationmode  sample-hold
attr title  "queue length, vector"
vector 637  ErlangenLTE.pgw.ppp[30].ppp  txState:vector  ETV
attr interpolationmode  sample-hold
attr title  "tx state, vector"
vector 647  ErlangenLTE.pgw.ppp[31].queue  queueLength:vector  ETV
attr interpolationmode  sample-hold
attr title  "queue length, vector"
vector 648  ErlangenLTE.pgw.ppp[31].ppp  txState:vector  ETV
attr interpolationmode  sample-hold
attr title  "tx state, vector"
vector 658  ErlangenLTE.pgw.ppp[32].queue  queueLength:vector  ETV
attr interpolationmode  sample-hold
attr title  "queue length, vector"
vector 659  ErlangenLTE.pgw.ppp[32].ppp  txState:vector  ETV
attr interpolationmode  sample-hold
attr title  "tx state, vector"
vector 669  ErlangenLTE.pgw.ppp[33].queue  queueLength:vector  ETV
attr interpolationmode  sample-hold
attr title  "queue length, vector"
vector 670  ErlangenLTE.pgw.ppp[33].ppp  txState:vector  ETV
attr interpolationmode  sample-hold
attr title  "tx state, vector"
vector 680  ErlangenLTE.pgw.ppp[34].queue  queueLength:vector  ETV
attr interpolationmode  sample-hold
attr title  "queue length, vector"
vector 681  ErlangenLTE.pgw.ppp[34].ppp  txState:vector  ETV
attr interpolationmode  sample-hold
attr title  "tx state, vector"
vector 691  ErlangenLTE.pgw.ppp[35].queue  queueLength:vector  ETV
attr interpolationmode  sample-hold
attr title  "queue length, vector"
vector 692  ErlangenLTE.pgw.ppp[35].ppp  txState:vector  ETV
attr interpolationmode  sample-hold
attr title  "tx state, vector"
vector 702  ErlangenLTE.pgw.ppp[36].queue  queueLength:vector  ETV
attr interpolationmode  sample-hold
attr title  "queue length, vector"
vector 703  ErlangenLTE.pgw.ppp[36].ppp  txState:vector  ETV
attr interpolationmode  sample-hold
attr title  "tx state, vector"
vector 713  ErlangenLTE.pgw.ppp[37].queue  queueLength:vector  ETV
attr interpolationmode  sample-hold
attr title  "queue length, vector"
vector 714  ErlangenLTE.pgw.ppp[37].ppp  txState:vector  ETV
attr interpolationmode  sample-hold
attr title  "tx state, vector"
vector 724  ErlangenLTE.pgw.ppp[38].queue  queueLength:vector  ETV
attr interpolationmode  sample-hold
attr title  "queue length, vector"
vector 725  ErlangenLTE.pgw.ppp[38].ppp  txState:vector  ETV
attr interpolationmode  sample-hold
attr title  "tx state, vector"
vector 735  ErlangenLTE.pgw.ppp[39].queue  queueLength:vector  ETV
attr interpolationmode  sample-hold
attr title  "queue length, vector"
vector 736  ErlangenLTE.pgw.ppp[39].ppp  txState:vector  ETV
attr interpolationmode  sample-hold
attr title  "tx state, vector"
vector 746  ErlangenLTE.pgw.ppp[40].queue  queueLength:vector  ETV
attr interpolationmode  sample-hold
attr title  "queue length, vector"
vector 747  ErlangenLTE.pgw.ppp[40].ppp  txState:vector  ETV
attr interpolationmode  sample-hold
attr title  "tx state, vector"
vector 757  ErlangenLTE.pgw.ppp[41].queue  queueLength:vector  ETV
attr interpolationmode  sample-hold
attr title  "queue length, vector"
vector 758  ErlangenLTE.pgw.ppp[41].ppp  txState:vector  ETV
attr interpolationmode  sample-hold
attr title  "tx state, vector"
vector 768  ErlangenLTE.pgw.ppp[42].queue  queueLength:vector  ETV
attr interpolationmode  sample-hold
attr title  "queue length, vector"
vector 769  ErlangenLTE.pgw.ppp[42].ppp  txState:vector  ETV
attr interpolationmode  sample-hold
attr title  "tx state, vector"
vector 779  ErlangenLTE.pgw.ppp[43].queue  queueLength:vector  ETV
attr interpolationmode  sample-hold
attr title  "queue length, vector"
vector 780  ErlangenLTE.pgw.ppp[43].ppp  txState:vector  ETV
attr interpolationmode  sample-hold
attr title  "tx state, vector"
vector 790  ErlangenLTE.pgw.ppp[44].queue  queueLength:vector  ETV
attr interpolationmode  sample-hold
attr title  "queue length, vector"
vector 791  ErlangenLTE.pgw.ppp[44].ppp  txState:vector  ETV
attr interpolationmode  sample-hold
attr title  "tx state, vector"
vector 801  ErlangenLTE.pgw.ppp[45].queue  queueLength:vector  ETV
attr interpolationmode  sample-hold
attr title  "queue length, vector"
vector 802  ErlangenLTE.pgw.ppp[45].ppp  txState:vector  ETV
attr interpolationmode  sample-hold
attr title  "tx state, vector"
vector 812  ErlangenLTE.pgw.ppp[46].queue  queueLength:vector  ETV
attr interpolationmode  sample-hold
attr title  "queue length, vector"
vector 813  ErlangenLTE.pgw.ppp[46].ppp  txState:vector  ETV
attr interpolationmode  sample-hold
attr title  "tx state, vector"
vector 823  ErlangenLTE.pgw.ppp[47].queue  queueLength:vector  ETV
attr interpolationmode  sample-hold
attr title  "queue length, vector"
vector 824  ErlangenLTE.pgw.ppp[47].ppp  txState:vector  ETV
attr interpolationmode  sample-hold
attr title  "tx state, vector"
vector 834  ErlangenLTE.pgw.ppp[48].queue  queueLength:vector  ETV
attr interpolationmode  sample-hold
attr title  "queue length, vector"
vector 835  ErlangenLTE.pgw.ppp[48].ppp  txState:vector  ETV
attr interpolationmode  sample-hold
attr title  "tx state, vector"
vector 845  ErlangenLTE.pgw.ppp[49].queue  queueLength:vector  ETV
attr interpolationmode  sample-hold
attr title  "queue length, vector"
vector 846  ErlangenLTE.pgw.ppp[49].ppp  txState:vector  ETV
attr interpolationmode  sample-hold
attr title  "tx state, vector"
vector 856  ErlangenLTE.pgw.ppp[50].queue  queueLength:vector  ETV
attr interpolationmode  sample-hold
attr title  "queue length, vector"
vector 857  ErlangenLTE.pgw.ppp[50].ppp  txState:vector  ETV
attr interpolationmode  sample-hold
attr title  "tx state, vector"
vector 867  ErlangenLTE.pgw.ppp[51].queue  queueLength:vector  ETV
attr interpolationmode  sample-hold
attr title  "queue length, vector"
vector 868  ErlangenLTE.pgw.ppp[51].ppp  txState:vector  ETV
attr interpolationmode  sample-hold
attr title  "tx state, vector"
vector 878  ErlangenLTE.pgw.ppp[52].queue  queueLength:vector  ETV
attr interpolationmode  sample-hold
attr title  "queue length, vector"
vector 879  ErlangenLTE.pgw.ppp[52].ppp  txState:vector  ETV
attr interpolationmode  sample-hold
attr title  "tx state, vector"
vector 889  ErlangenLTE.pgw.ppp[53].queue  queueLength:vector  ETV
attr interpolationmode  sample-hold
attr title  "queue length, vector"
vector 890  ErlangenLTE.pgw.ppp[53].ppp  txState:vector  ETV
attr interpolationmode  sample-hold
attr title  "tx state, vector"
vector 900  ErlangenLTE.pgw.ppp[54].queue  queueLength:vector  ETV
attr interpolationmode  sample-hold
attr title  "queue length, vector"
vector 901  ErlangenLTE.pgw.ppp[54].ppp  txState:vector  ETV
attr interpolationmode  sample-hold
attr title  "tx state, vector"
vector 911  ErlangenLTE.pgw.ppp[55].queue  queueLength:vector  ETV
attr interpolationmode  sample-hold
attr title  "queue length, vector"
vector 912  ErlangenLTE.pgw.ppp[55].ppp  txState:vector  ETV
attr interpolationmode  sample-hold
attr title  "tx state, vector"
vector 922  ErlangenLTE.pgw.ppp[56].queue  queueLength:vector  ETV
attr interpolationmode  sample-hold
attr title  "queue length, vector"
vector 923  ErlangenLTE.pgw.ppp[56].ppp  txState:vector  ETV
attr interpolationmode  sample-hold
attr title  "tx state, vector"
vector 933  ErlangenLTE.pgw.ppp[57].queue  queueLength:vector  ETV
attr interpolationmode  sample-hold
attr title  "queue length, vector"
vector 934  ErlangenLTE.pgw.ppp[57].ppp  txState:vector  ETV
attr interpolationmode  sample-hold
attr title  "tx state, vector"
vector 944  ErlangenLTE.pgw.ppp[58].queue  queueLength:vector  ETV
attr interpolationmode  sample-hold
attr title  "queue length, vector"
vector 945  ErlangenLTE.pgw.ppp[58].ppp  txState:vector  ETV
attr interpolationmode  sample-hold
attr title  "tx state, vector"
vector 955  ErlangenLTE.pgw.ppp[59].queue  queueLength:vector  ETV
attr interpolationmode  sample-hold
attr title  "queue length, vector"
vector 956  ErlangenLTE.pgw.ppp[59].ppp  txState:vector  ETV
attr interpolationmode  sample-hold
attr title  "tx state, vector"
vector 966  ErlangenLTE.pgw.ppp[60].queue  queueLength:vector  ETV
attr interpolationmode  sample-hold
attr title  "queue length, vector"
vector 967  ErlangenLTE.pgw.ppp[60].ppp  txState:vector  ETV
attr interpolationmode  sample-hold
attr title  "tx state, vector"
vector 977  ErlangenLTE.pgw.ppp[61].queue  queueLength:vector  ETV
attr interpolationmode  sample-hold
attr title  "queue length, vector"
vector 978  ErlangenLTE.pgw.ppp[61].ppp  txState:vector  ETV
attr interpolationmode  sample-hold
attr title  "tx state, vector"
vector 988  ErlangenLTE.pgw.ppp[62].queue  queueLength:vector  ETV
attr interpolationmode  sample-hold
attr title  "queue length, vector"
vector 989  ErlangenLTE.pgw.ppp[62].ppp  txState:vector  ETV
attr interpolationmode  sample-hold
attr title  "tx state, vector"
vector 999  ErlangenLTE.pgw.ppp[63].queue  queueLength:vector  ETV
attr interpolationmode  sample-hold
attr title  "queue length, vector"
vector 1000  ErlangenLTE.pgw.ppp[63].ppp  txState:vector  ETV
attr interpolationmode  sample-hold
attr title  "tx state, vector"
vector 1010  ErlangenLTE.pgw.ppp[64].queue  queueLength:vector  ETV
attr interpolationmode  sample-hold
attr title  "queue length, vector"
vector 1011  ErlangenLTE.pgw.ppp[64].ppp  txState:vector  ETV
attr interpolationmode  sample-hold
attr title  "tx state, vector"
vector 1021  ErlangenLTE.pgw.ppp[65].queue  queueLength:vector  ETV
attr interpolationmode  sample-hold
attr title  "queue length, vector"
vector 1022  ErlangenLTE.pgw.ppp[65].ppp  txState:vector  ETV
attr interpolationmode  sample-hold
attr title  "tx state, vector"
vector 1032  ErlangenLTE.pgw.pppInterface.queue  queueLength:vector  ETV
attr interpolationmode  sample-hold
attr title  "queue length, vector"
vector 1033  ErlangenLTE.pgw.pppInterface.ppp  txState:vector  ETV
attr interpolationmode  sample-hold
attr title  "tx state, vector"
vector 1075  ErlangenLTE.eNodeB1.pppIf.queue  queueLength:vector  ETV
attr interpolationmode  sample-hold
attr title  "queue length, vector"
vector 1076  ErlangenLTE.eNodeB1.pppIf.ppp  txState:vector  ETV
attr interpolationmode  sample-hold
attr title  "tx state, vector"
vector 1086  ErlangenLTE.eNodeB1.x2ppp[0].queue  queueLength:vector  ETV
attr interpolationmode  sample-hold
attr title  "queue length, vector"
vector 1087  ErlangenLTE.eNodeB1.x2ppp[0].ppp  txState:vector  ETV
attr interpolationmode  sample-hold
attr title  "tx state, vector"
vector 1097  ErlangenLTE.eNodeB1.x2ppp[1].queue  queueLength:vector  ETV
attr interpolationmode  sample-hold
attr title  "queue length, vector"
vector 1098  ErlangenLTE.eNodeB1.x2ppp[1].ppp  txState:vector  ETV
attr interpolationmode  sample-hold
attr title  "tx state, vector"
vector 1108  ErlangenLTE.eNodeB1.x2ppp[2].queue  queueLength:vector  ETV
attr interpolationmode  sample-hold
attr title  "queue length, vector"
vector 1109  ErlangenLTE.eNodeB1.x2ppp[2].ppp  txState:vector  ETV
attr interpolationmode  sample-hold
attr title  "tx state, vector"
vector 1119  ErlangenLTE.eNodeB1.x2ppp[3].queue  queueLength:vector  ETV
attr interpolationmode  sample-hold
attr title  "queue length, vector"
vector 1120  ErlangenLTE.eNodeB1.x2ppp[3].ppp  txState:vector  ETV
attr interpolationmode  sample-hold
attr title  "tx state, vector"
vector 1130  ErlangenLTE.eNodeB1.x2ppp[4].queue  queueLength:vector  ETV
attr interpolationmode  sample-hold
attr title  "queue length, vector"
vector 1131  ErlangenLTE.eNodeB1.x2ppp[4].ppp  txState:vector  ETV
attr interpolationmode  sample-hold
attr title  "tx state, vector"
vector 1190  ErlangenLTE.eNodeB2.pppIf.queue  queueLength:vector  ETV
attr interpolationmode  sample-hold
attr title  "queue length, vector"
vector 1191  ErlangenLTE.eNodeB2.pppIf.ppp  txState:vector  ETV
attr interpolationmode  sample-hold
attr title  "tx state, vector"
vector 1201  ErlangenLTE.eNodeB2.x2ppp[0].queue  queueLength:vector  ETV
attr interpolationmode  sample-hold
attr title  "queue length, vector"
vector 1202  ErlangenLTE.eNodeB2.x2ppp[0].ppp  txState:vector  ETV
attr interpolationmode  sample-hold
attr title  "tx state, vector"
vector 1212  ErlangenLTE.eNodeB2.x2ppp[1].queue  queueLength:vector  ETV
attr interpolationmode  sample-hold
attr title  "queue length, vector"
vector 1213  ErlangenLTE.eNodeB2.x2ppp[1].ppp  txState:vector  ETV
attr interpolationmode  sample-hold
attr title  "tx state, vector"
vector 1223  ErlangenLTE.eNodeB2.x2ppp[2].queue  queueLength:vector  ETV
attr interpolationmode  sample-hold
attr title  "queue length, vector"
vector 1224  ErlangenLTE.eNodeB2.x2ppp[2].ppp  txState:vector  ETV
attr interpolationmode  sample-hold
attr title  "tx state, vector"
vector 1277  ErlangenLTE.eNodeB3.pppIf.queue  queueLength:vector  ETV
attr interpolationmode  sample-hold
attr title  "queue length, vector"
vector 1278  ErlangenLTE.eNodeB3.pppIf.ppp  txState:vector  ETV
attr interpolationmode  sample-hold
attr title  "tx state, vector"
vector 1288  ErlangenLTE.eNodeB3.x2ppp[0].queue  queueLength:vector  ETV
attr interpolationmode  sample-hold
attr title  "queue length, vector"
vector 1289  ErlangenLTE.eNodeB3.x2ppp[0].ppp  txState:vector  ETV
attr interpolationmode  sample-hold
attr title  "tx state, vector"
vector 1299  ErlangenLTE.eNodeB3.x2ppp[1].queue  queueLength:vector  ETV
attr interpolationmode  sample-hold
attr title  "queue length, vector"
vector 1300  ErlangenLTE.eNodeB3.x2ppp[1].ppp  txState:vector  ETV
attr interpolationmode  sample-hold
attr title  "tx state, vector"
vector 1310  ErlangenLTE.eNodeB3.x2ppp[2].queue  queueLength:vector  ETV
attr interpolationmode  sample-hold
attr title  "queue length, vector"
vector 1311  ErlangenLTE.eNodeB3.x2ppp[2].ppp  txState:vector  ETV
attr interpolationmode  sample-hold
attr title  "tx state, vector"
vector 1321  ErlangenLTE.eNodeB3.x2ppp[3].queue  queueLength:vector  ETV
attr interpolationmode  sample-hold
attr title  "queue length, vector"
vector 1322  ErlangenLTE.eNodeB3.x2ppp[3].ppp  txState:vector  ETV
attr interpolationmode  sample-hold
attr title  "tx state, vector"
vector 1332  ErlangenLTE.eNodeB3.x2ppp[4].queue  queueLength:vector  ETV
attr interpolationmode  sample-hold
attr title  "queue length, vector"
vector 1333  ErlangenLTE.eNodeB3.x2ppp[4].ppp  txState:vector  ETV
attr interpolationmode  sample-hold
attr title  "tx state, vector"
vector 1343  ErlangenLTE.eNodeB3.x2ppp[5].queue  queueLength:vector  ETV
attr interpolationmode  sample-hold
attr title  "queue length, vector"
vector 1344  ErlangenLTE.eNodeB3.x2ppp[5].ppp  txState:vector  ETV
attr interpolationmode  sample-hold
attr title  "tx state, vector"
vector 1406  ErlangenLTE.eNodeB4.pppIf.queue  queueLength:vector  ETV
attr interpolationmode  sample-hold
attr title  "queue length, vector"
vector 1407  ErlangenLTE.eNodeB4.pppIf.ppp  txState:vector  ETV
attr interpolationmode  sample-hold
attr title  "tx state, vector"
vector 1417  ErlangenLTE.eNodeB4.x2ppp[0].queue  queueLength:vector  ETV
attr interpolationmode  sample-hold
attr title  "queue length, vector"
vector 1418  ErlangenLTE.eNodeB4.x2ppp[0].ppp  txState:vector  ETV
attr interpolationmode  sample-hold
attr title  "tx state, vector"
vector 1428  ErlangenLTE.eNodeB4.x2ppp[1].queue  queueLength:vector  ETV
attr interpolationmode  sample-hold
attr title  "queue length, vector"
vector 1429  ErlangenLTE.eNodeB4.x2ppp[1].ppp  txState:vector  ETV
attr interpolationmode  sample-hold
attr title  "tx state, vector"
vector 1439  ErlangenLTE.eNodeB4.x2ppp[2].queue  queueLength:vector  ETV
attr interpolationmode  sample-hold
attr title  "queue length, vector"
vector 1440  ErlangenLTE.eNodeB4.x2ppp[2].ppp  txState:vector  ETV
attr interpolationmode  sample-hold
attr title  "tx state, vector"
vector 1493  ErlangenLTE.eNodeB5.pppIf.queue  queueLength:vector  ETV
attr interpolationmode  sample-hold
attr title  "queue length, vector"
vector 1494  ErlangenLTE.eNodeB5.pppIf.ppp  txState:vector  ETV
attr interpolationmode  sample-hold
attr title  "tx state, vector"
vector 1504  ErlangenLTE.eNodeB5.x2ppp[0].queue  queueLength:vector  ETV
attr interpolationmode  sample-hold
attr title  "queue length, vector"
vector 1505  ErlangenLTE.eNodeB5.x2ppp[0].ppp  txState:vector  ETV
attr interpolationmode  sample-hold
attr title  "tx state, vector"
vector 1515  ErlangenLTE.eNodeB5.x2ppp[1].queue  queueLength:vector  ETV
attr interpolationmode  sample-hold
attr title  "queue length, vector"
vector 1516  ErlangenLTE.eNodeB5.x2ppp[1].ppp  txState:vector  ETV
attr interpolationmode  sample-hold
attr title  "tx state, vector"
vector 1526  ErlangenLTE.eNodeB5.x2ppp[2].queue  queueLength:vector  ETV
attr interpolationmode  sample-hold
attr title  "queue length, vector"
vector 1527  ErlangenLTE.eNodeB5.x2ppp[2].ppp  txState:vector  ETV
attr interpolationmode  sample-hold
attr title  "tx state, vector"
vector 1580  ErlangenLTE.eNodeB6.pppIf.queue  queueLength:vector  ETV
attr interpolationmode  sample-hold
attr title  "queue length, vector"
vector 1581  ErlangenLTE.eNodeB6.pppIf.ppp  txState:vector  ETV
attr interpolationmode  sample-hold
attr title  "tx state, vector"
vector 1591  ErlangenLTE.eNodeB6.x2ppp[0].queue  queueLength:vector  ETV
attr interpolationmode  sample-hold
attr title  "queue length, vector"
vector 1592  ErlangenLTE.eNodeB6.x2ppp[0].ppp  txState:vector  ETV
attr interpolationmode  sample-hold
attr title  "tx state, vector"
vector 1602  ErlangenLTE.eNodeB6.x2ppp[1].queue  queueLength:vector  ETV
attr interpolationmode  sample-hold
attr title  "queue length, vector"
vector 1603  ErlangenLTE.eNodeB6.x2ppp[1].ppp  txState:vector  ETV
attr interpolationmode  sample-hold
attr title  "tx state, vector"
vector 1613  ErlangenLTE.eNodeB6.x2ppp[2].queue  queueLength:vector  ETV
attr interpolationmode  sample-hold
attr title  "queue length, vector"
vector 1614  ErlangenLTE.eNodeB6.x2ppp[2].ppp  txState:vector  ETV
attr interpolationmode  sample-hold
attr title  "tx state, vector"
vector 1624  ErlangenLTE.eNodeB6.x2ppp[3].queue  queueLength:vector  ETV
attr interpolationmode  sample-hold
attr title  "queue length, vector"
vector 1625  ErlangenLTE.eNodeB6.x2ppp[3].ppp  txState:vector  ETV
attr interpolationmode  sample-hold
attr title  "tx state, vector"
vector 1635  ErlangenLTE.eNodeB6.x2ppp[4].queue  queueLength:vector  ETV
attr interpolationmode  sample-hold
attr title  "queue length, vector"
vector 1636  ErlangenLTE.eNodeB6.x2ppp[4].ppp  txState:vector  ETV
attr interpolationmode  sample-hold
attr title  "tx state, vector"
vector 1695  ErlangenLTE.eNodeB7.pppIf.queue  queueLength:vector  ETV
attr interpolationmode  sample-hold
attr title  "queue length, vector"
vector 1696  ErlangenLTE.eNodeB7.pppIf.ppp  txState:vector  ETV
attr interpolationmode  sample-hold
attr title  "tx state, vector"
vector 1706  ErlangenLTE.eNodeB7.x2ppp[0].queue  queueLength:vector  ETV
attr interpolationmode  sample-hold
attr title  "queue length, vector"
vector 1707  ErlangenLTE.eNodeB7.x2ppp[0].ppp  txState:vector  ETV
attr interpolationmode  sample-hold
attr title  "tx state, vector"
vector 1717  ErlangenLTE.eNodeB7.x2ppp[1].queue  queueLength:vector  ETV
attr interpolationmode  sample-hold
attr title  "queue length, vector"
vector 1718  ErlangenLTE.eNodeB7.x2ppp[1].ppp  txState:vector  ETV
attr interpolationmode  sample-hold
attr title  "tx state, vector"
vector 1728  ErlangenLTE.eNodeB7.x2ppp[2].queue  queueLength:vector  ETV
attr interpolationmode  sample-hold
attr title  "queue length, vector"
vector 1729  ErlangenLTE.eNodeB7.x2ppp[2].ppp  txState:vector  ETV
attr interpolationmode  sample-hold
attr title  "tx state, vector"
vector 1782  ErlangenLTE.eNodeB8.pppIf.queue  queueLength:vector  ETV
attr interpolationmode  sample-hold
attr title  "queue length, vector"
vector 1783  ErlangenLTE.eNodeB8.pppIf.ppp  txState:vector  ETV
attr interpolationmode  sample-hold
attr title  "tx state, vector"
vector 1793  ErlangenLTE.eNodeB8.x2ppp[0].queue  queueLength:vector  ETV
attr interpolationmode  sample-hold
attr title  "queue length, vector"
vector 1794  ErlangenLTE.eNodeB8.x2ppp[0].ppp  txState:vector  ETV
attr interpolationmode  sample-hold
attr title  "tx state, vector"
vector 1804  ErlangenLTE.eNodeB8.x2ppp[1].queue  queueLength:vector  ETV
attr interpolationmode  sample-hold
attr title  "queue length, vector"
vector 1805  ErlangenLTE.eNodeB8.x2ppp[1].ppp  txState:vector  ETV
attr interpolationmode  sample-hold
attr title  "tx state, vector"
vector 1815  ErlangenLTE.eNodeB8.x2ppp[2].queue  queueLength:vector  ETV
attr interpolationmode  sample-hold
attr title  "queue length, vector"
vector 1816  ErlangenLTE.eNodeB8.x2ppp[2].ppp  txState:vector  ETV
attr interpolationmode  sample-hold
attr title  "tx state, vector"
vector 1826  ErlangenLTE.eNodeB8.x2ppp[3].queue  queueLength:vector  ETV
attr interpolationmode  sample-hold
attr title  "queue length, vector"
vector 1827  ErlangenLTE.eNodeB8.x2ppp[3].ppp  txState:vector  ETV
attr interpolationmode  sample-hold
attr title  "tx state, vector"
vector 1883  ErlangenLTE.eNodeB9.pppIf.queue  queueLength:vector  ETV
attr interpolationmode  sample-hold
attr title  "queue length, vector"
vector 1884  ErlangenLTE.eNodeB9.pppIf.ppp  txState:vector  ETV
attr interpolationmode  sample-hold
attr title  "tx state, vector"
vector 1894  ErlangenLTE.eNodeB9.x2ppp[0].queue  queueLength:vector  ETV
attr interpolationmode  sample-hold
attr title  "queue length, vector"
vector 1895  ErlangenLTE.eNodeB9.x2ppp[0].ppp  txState:vector  ETV
attr interpolationmode  sample-hold
attr title  "tx state, vector"
vector 1905  ErlangenLTE.eNodeB9.x2ppp[1].queue  queueLength:vector  ETV
attr interpolationmode  sample-hold
attr title  "queue length, vector"
vector 1906  ErlangenLTE.eNodeB9.x2ppp[1].ppp  txState:vector  ETV
attr interpolationmode  sample-hold
attr title  "tx state, vector"
vector 1916  ErlangenLTE.eNodeB9.x2ppp[2].queue  queueLength:vector  ETV
attr interpolationmode  sample-hold
attr title  "queue length, vector"
vector 1917  ErlangenLTE.eNodeB9.x2ppp[2].ppp  txState:vector  ETV
attr interpolationmode  sample-hold
attr title  "tx state, vector"
vector 1970  ErlangenLTE.eNodeB10.pppIf.queue  queueLength:vector  ETV
attr interpolationmode  sample-hold
attr title  "queue length, vector"
vector 1971  ErlangenLTE.eNodeB10.pppIf.ppp  txState:vector  ETV
attr interpolationmode  sample-hold
attr title  "tx state, vector"
vector 1981  ErlangenLTE.eNodeB10.x2ppp[0].queue  queueLength:vector  ETV
attr interpolationmode  sample-hold
attr title  "queue length, vector"
vector 1982  ErlangenLTE.eNodeB10.x2ppp[0].ppp  txState:vector  ETV
attr interpolationmode  sample-hold
attr title  "tx state, vector"
vector 1992  ErlangenLTE.eNodeB10.x2ppp[1].queue  queueLength:vector  ETV
attr interpolationmode  sample-hold
attr title  "queue length, vector"
vector 1993  ErlangenLTE.eNodeB10.x2ppp[1].ppp  txState:vector  ETV
attr interpolationmode  sample-hold
attr title  "tx state, vector"
vector 2003  ErlangenLTE.eNodeB10.x2ppp[2].queue  queueLength:vector  ETV
attr interpolationmode  sample-hold
attr title  "queue length, vector"
vector 2004  ErlangenLTE.eNodeB10.x2ppp[2].ppp  txState:vector  ETV
attr interpolationmode  sample-hold
attr title  "tx state, vector"
vector 2014  ErlangenLTE.eNodeB10.x2ppp[3].queue  queueLength:vector  ETV
attr interpolationmode  sample-hold
attr title  "queue length, vector"
vector 2015  ErlangenLTE.eNodeB10.x2ppp[3].ppp  txState:vector  ETV
attr interpolationmode  sample-hold
attr title  "tx state, vector"
vector 2025  ErlangenLTE.eNodeB10.x2ppp[4].queue  queueLength:vector  ETV
attr interpolationmode  sample-hold
attr title  "queue length, vector"
vector 2026  ErlangenLTE.eNodeB10.x2ppp[4].ppp  txState:vector  ETV
attr interpolationmode  sample-hold
attr title  "tx state, vector"
vector 2085  ErlangenLTE.eNodeB11.pppIf.queue  queueLength:vector  ETV
attr interpolationmode  sample-hold
attr title  "queue length, vector"
vector 2086  ErlangenLTE.eNodeB11.pppIf.ppp  txState:vector  ETV
attr interpolationmode  sample-hold
attr title  "tx state, vector"
vector 2096  ErlangenLTE.eNodeB11.x2ppp[0].queue  queueLength:vector  ETV
attr interpolationmode  sample-hold
attr title  "queue length, vector"
vector 2097  ErlangenLTE.eNodeB11.x2ppp[0].ppp  txState:vector  ETV
attr interpolationmode  sample-hold
attr title  "tx state, vector"
vector 2107  ErlangenLTE.eNodeB11.x2ppp[1].queue  queueLength:vector  ETV
attr interpolationmode  sample-hold
attr title  "queue length, vector"
vector 2108  ErlangenLTE.eNodeB11.x2ppp[1].ppp  txState:vector  ETV
attr interpolationmode  sample-hold
attr title  "tx state, vector"
vector 2118  ErlangenLTE.eNodeB11.x2ppp[2].queue  queueLength:vector  ETV
attr interpolationmode  sample-hold
attr title  "queue length, vector"
vector 2119  ErlangenLTE.eNodeB11.x2ppp[2].ppp  txState:vector  ETV
attr interpolationmode  sample-hold
attr title  "tx state, vector"
vector 2172  ErlangenLTE.eNodeB12.pppIf.queue  queueLength:vector  ETV
attr interpolationmode  sample-hold
attr title  "queue length, vector"
vector 2173  ErlangenLTE.eNodeB12.pppIf.ppp  txState:vector  ETV
attr interpolationmode  sample-hold
attr title  "tx state, vector"
vector 2183  ErlangenLTE.eNodeB12.x2ppp[0].queue  queueLength:vector  ETV
attr interpolationmode  sample-hold
attr title  "queue length, vector"
vector 2184  ErlangenLTE.eNodeB12.x2ppp[0].ppp  txState:vector  ETV
attr interpolationmode  sample-hold
attr title  "tx state, vector"
vector 2194  ErlangenLTE.eNodeB12.x2ppp[1].queue  queueLength:vector  ETV
attr interpolationmode  sample-hold
attr title  "queue length, vector"
vector 2195  ErlangenLTE.eNodeB12.x2ppp[1].ppp  txState:vector  ETV
attr interpolationmode  sample-hold
attr title  "tx state, vector"
vector 2205  ErlangenLTE.eNodeB12.x2ppp[2].queue  queueLength:vector  ETV
attr interpolationmode  sample-hold
attr title  "queue length, vector"
vector 2206  ErlangenLTE.eNodeB12.x2ppp[2].ppp  txState:vector  ETV
attr interpolationmode  sample-hold
attr title  "tx state, vector"
vector 2259  ErlangenLTE.eNodeB13.pppIf.queue  queueLength:vector  ETV
attr interpolationmode  sample-hold
attr title  "queue length, vector"
vector 2260  ErlangenLTE.eNodeB13.pppIf.ppp  txState:vector  ETV
attr interpolationmode  sample-hold
attr title  "tx state, vector"
vector 2270  ErlangenLTE.eNodeB13.x2ppp[0].queue  queueLength:vector  ETV
attr interpolationmode  sample-hold
attr title  "queue length, vector"
vector 2271  ErlangenLTE.eNodeB13.x2ppp[0].ppp  txState:vector  ETV
attr interpolationmode  sample-hold
attr title  "tx state, vector"
vector 2281  ErlangenLTE.eNodeB13.x2ppp[1].queue  queueLength:vector  ETV
attr interpolationmode  sample-hold
attr title  "queue length, vector"
vector 2282  ErlangenLTE.eNodeB13.x2ppp[1].ppp  txState:vector  ETV
attr interpolationmode  sample-hold
attr title  "tx state, vector"
vector 2292  ErlangenLTE.eNodeB13.x2ppp[2].queue  queueLength:vector  ETV
attr interpolationmode  sample-hold
attr title  "queue length, vector"
vector 2293  ErlangenLTE.eNodeB13.x2ppp[2].ppp  txState:vector  ETV
attr interpolationmode  sample-hold
attr title  "tx state, vector"
vector 2303  ErlangenLTE.eNodeB13.x2ppp[3].queue  queueLength:vector  ETV
attr interpolationmode  sample-hold
attr title  "queue length, vector"
vector 2304  ErlangenLTE.eNodeB13.x2ppp[3].ppp  txState:vector  ETV
attr interpolationmode  sample-hold
attr title  "tx state, vector"
vector 2314  ErlangenLTE.eNodeB13.x2ppp[4].queue  queueLength:vector  ETV
attr interpolationmode  sample-hold
attr title  "queue length, vector"
vector 2315  ErlangenLTE.eNodeB13.x2ppp[4].ppp  txState:vector  ETV
attr interpolationmode  sample-hold
attr title  "tx state, vector"
vector 2325  ErlangenLTE.eNodeB13.x2ppp[5].queue  queueLength:vector  ETV
attr interpolationmode  sample-hold
attr title  "queue length, vector"
vector 2326  ErlangenLTE.eNodeB13.x2ppp[5].ppp  txState:vector  ETV
attr interpolationmode  sample-hold
attr title  "tx state, vector"
vector 2336  ErlangenLTE.eNodeB13.x2ppp[6].queue  queueLength:vector  ETV
attr interpolationmode  sample-hold
attr title  "queue length, vector"
vector 2337  ErlangenLTE.eNodeB13.x2ppp[6].ppp  txState:vector  ETV
attr interpolationmode  sample-hold
attr title  "tx state, vector"
vector 2402  ErlangenLTE.eNodeB14.pppIf.queue  queueLength:vector  ETV
attr interpolationmode  sample-hold
attr title  "queue length, vector"
vector 2403  ErlangenLTE.eNodeB14.pppIf.ppp  txState:vector  ETV
attr interpolationmode  sample-hold
attr title  "tx state, vector"
vector 2413  ErlangenLTE.eNodeB14.x2ppp[0].queue  queueLength:vector  ETV
attr interpolationmode  sample-hold
attr title  "queue length, vector"
vector 2414  ErlangenLTE.eNodeB14.x2ppp[0].ppp  txState:vector  ETV
attr interpolationmode  sample-hold
attr title  "tx state, vector"
vector 2424  ErlangenLTE.eNodeB14.x2ppp[1].queue  queueLength:vector  ETV
attr interpolationmode  sample-hold
attr title  "queue length, vector"
vector 2425  ErlangenLTE.eNodeB14.x2ppp[1].ppp  txState:vector  ETV
attr interpolationmode  sample-hold
attr title  "tx state, vector"
vector 2435  ErlangenLTE.eNodeB14.x2ppp[2].queue  queueLength:vector  ETV
attr interpolationmode  sample-hold
attr title  "queue length, vector"
vector 2436  ErlangenLTE.eNodeB14.x2ppp[2].ppp  txState:vector  ETV
attr interpolationmode  sample-hold
attr title  "tx state, vector"
vector 2446  ErlangenLTE.eNodeB14.x2ppp[3].queue  queueLength:vector  ETV
attr interpolationmode  sample-hold
attr title  "queue length, vector"
vector 2447  ErlangenLTE.eNodeB14.x2ppp[3].ppp  txState:vector  ETV
attr interpolationmode  sample-hold
attr title  "tx state, vector"
vector 2503  ErlangenLTE.eNodeB15.pppIf.queue  queueLength:vector  ETV
attr interpolationmode  sample-hold
attr title  "queue length, vector"
vector 2504  ErlangenLTE.eNodeB15.pppIf.ppp  txState:vector  ETV
attr interpolationmode  sample-hold
attr title  "tx state, vector"
vector 2514  ErlangenLTE.eNodeB15.x2ppp[0].queue  queueLength:vector  ETV
attr interpolationmode  sample-hold
attr title  "queue length, vector"
vector 2515  ErlangenLTE.eNodeB15.x2ppp[0].ppp  txState:vector  ETV
attr interpolationmode  sample-hold
attr title  "tx state, vector"
vector 2525  ErlangenLTE.eNodeB15.x2ppp[1].queue  queueLength:vector  ETV
attr interpolationmode  sample-hold
attr title  "queue length, vector"
vector 2526  ErlangenLTE.eNodeB15.x2ppp[1].ppp  txState:vector  ETV
attr interpolationmode  sample-hold
attr title  "tx state, vector"
vector 2536  ErlangenLTE.eNodeB15.x2ppp[2].queue  queueLength:vector  ETV
attr interpolationmode  sample-hold
attr title  "queue length, vector"
vector 2537  ErlangenLTE.eNodeB15.x2ppp[2].ppp  txState:vector  ETV
attr interpolationmode  sample-hold
attr title  "tx state, vector"
vector 2547  ErlangenLTE.eNodeB15.x2ppp[3].queue  queueLength:vector  ETV
attr interpolationmode  sample-hold
attr title  "queue length, vector"
vector 2548  ErlangenLTE.eNodeB15.x2ppp[3].ppp  txState:vector  ETV
attr interpolationmode  sample-hold
attr title  "tx state, vector"
vector 2604  ErlangenLTE.eNodeB16.pppIf.queue  queueLength:vector  ETV
attr interpolationmode  sample-hold
attr title  "queue length, vector"
vector 2605  ErlangenLTE.eNodeB16.pppIf.ppp  txState:vector  ETV
attr interpolationmode  sample-hold
attr title  "tx state, vector"
vector 2615  ErlangenLTE.eNodeB16.x2ppp[0].queue  queueLength:vector  ETV
attr interpolationmode  sample-hold
attr title  "queue length, vector"
vector 2616  ErlangenLTE.eNodeB16.x2ppp[0].ppp  txState:vector  ETV
attr interpolationmode  sample-hold
attr title  "tx state, vector"
vector 2626  ErlangenLTE.eNodeB16.x2ppp[1].queue  queueLength:vector  ETV
attr interpolationmode  sample-hold
attr title  "queue length, vector"
vector 2627  ErlangenLTE.eNodeB16.x2ppp[1].ppp  txState:vector  ETV
attr interpolationmode  sample-hold
attr title  "tx state, vector"
vector 2637  ErlangenLTE.eNodeB16.x2ppp[2].queue  queueLength:vector  ETV
attr interpolationmode  sample-hold
attr title  "queue length, vector"
vector 2638  ErlangenLTE.eNodeB16.x2ppp[2].ppp  txState:vector  ETV
attr interpolationmode  sample-hold
attr title  "tx state, vector"
vector 2691  ErlangenLTE.eNodeB17.pppIf.queue  queueLength:vector  ETV
attr interpolationmode  sample-hold
attr title  "queue length, vector"
vector 2692  ErlangenLTE.eNodeB17.pppIf.ppp  txState:vector  ETV
attr interpolationmode  sample-hold
attr title  "tx state, vector"
vector 2702  ErlangenLTE.eNodeB17.x2ppp[0].queue  queueLength:vector  ETV
attr interpolationmode  sample-hold
attr title  "queue length, vector"
vector 2703  ErlangenLTE.eNodeB17.x2ppp[0].ppp  txState:vector  ETV
attr interpolationmode  sample-hold
attr title  "tx state, vector"
vector 2713  ErlangenLTE.eNodeB17.x2ppp[1].queue  queueLength:vector  ETV
attr interpolationmode  sample-hold
attr title  "queue length, vector"
vector 2714  ErlangenLTE.eNodeB17.x2ppp[1].ppp  txState:vector  ETV
attr interpolationmode  sample-hold
attr title  "tx state, vector"
vector 2724  ErlangenLTE.eNodeB17.x2ppp[2].queue  queueLength:vector  ETV
attr interpolationmode  sample-hold
attr title  "queue length, vector"
vector 2725  ErlangenLTE.eNodeB17.x2ppp[2].ppp  txState:vector  ETV
attr interpolationmode  sample-hold
attr title  "tx state, vector"
vector 2735  ErlangenLTE.eNodeB17.x2ppp[3].queue  queueLength:vector  ETV
attr interpolationmode  sample-hold
attr title  "queue length, vector"
vector 2736  ErlangenLTE.eNodeB17.x2ppp[3].ppp  txState:vector  ETV
attr interpolationmode  sample-hold
attr title  "tx state, vector"
vector 2792  ErlangenLTE.eNodeB18.pppIf.queue  queueLength:vector  ETV
attr interpolationmode  sample-hold
attr title  "queue length, vector"
vector 2793  ErlangenLTE.eNodeB18.pppIf.ppp  txState:vector  ETV
attr interpolationmode  sample-hold
attr title  "tx state, vector"
vector 2803  ErlangenLTE.eNodeB18.x2ppp[0].queue  queueLength:vector  ETV
attr interpolationmode  sample-hold
attr title  "queue length, vector"
vector 2804  ErlangenLTE.eNodeB18.x2ppp[0].ppp  txState:vector  ETV
attr interpolationmode  sample-hold
attr title  "tx state, vector"
vector 2814  ErlangenLTE.eNodeB18.x2ppp[1].queue  queueLength:vector  ETV
attr interpolationmode  sample-hold
attr title  "queue length, vector"
vector 2815  ErlangenLTE.eNodeB18.x2ppp[1].ppp  txState:vector  ETV
attr interpolationmode  sample-hold
attr title  "tx state, vector"
vector 2825  ErlangenLTE.eNodeB18.x2ppp[2].queue  queueLength:vector  ETV
attr interpolationmode  sample-hold
attr title  "queue length, vector"
vector 2826  ErlangenLTE.eNodeB18.x2ppp[2].ppp  txState:vector  ETV
attr interpolationmode  sample-hold
attr title  "tx state, vector"
vector 2879  ErlangenLTE.eNodeB19.pppIf.queue  queueLength:vector  ETV
attr interpolationmode  sample-hold
attr title  "queue length, vector"
vector 2880  ErlangenLTE.eNodeB19.pppIf.ppp  txState:vector  ETV
attr interpolationmode  sample-hold
attr title  "tx state, vector"
vector 2890  ErlangenLTE.eNodeB19.x2ppp[0].queue  queueLength:vector  ETV
attr interpolationmode  sample-hold
attr title  "queue length, vector"
vector 2891  ErlangenLTE.eNodeB19.x2ppp[0].ppp  txState:vector  ETV
attr interpolationmode  sample-hold
attr title  "tx state, vector"
vector 2901  ErlangenLTE.eNodeB19.x2ppp[1].queue  queueLength:vector  ETV
attr interpolationmode  sample-hold
attr title  "queue length, vector"
vector 2902  ErlangenLTE.eNodeB19.x2ppp[1].ppp  txState:vector  ETV
attr interpolationmode  sample-hold
attr title  "tx state, vector"
vector 2912  ErlangenLTE.eNodeB19.x2ppp[2].queue  queueLength:vector  ETV
attr interpolationmode  sample-hold
attr title  "queue length, vector"
vector 2913  ErlangenLTE.eNodeB19.x2ppp[2].ppp  txState:vector  ETV
attr interpolationmode  sample-hold
attr title  "tx state, vector"
vector 2966  ErlangenLTE.eNodeB20.pppIf.queue  queueLength:vector  ETV
attr interpolationmode  sample-hold
attr title  "queue length, vector"
vector 2967  ErlangenLTE.eNodeB20.pppIf.ppp  txState:vector  ETV
attr interpolationmode  sample-hold
attr title  "tx state, vector"
vector 2977  ErlangenLTE.eNodeB20.x2ppp[0].queue  queueLength:vector  ETV
attr interpolationmode  sample-hold
attr title  "queue length, vector"
vector 2978  ErlangenLTE.eNodeB20.x2ppp[0].ppp  txState:vector  ETV
attr interpolationmode  sample-hold
attr title  "tx state, vector"
vector 2988  ErlangenLTE.eNodeB20.x2ppp[1].queue  queueLength:vector  ETV
attr interpolationmode  sample-hold
attr title  "queue length, vector"
vector 2989  ErlangenLTE.eNodeB20.x2ppp[1].ppp  txState:vector  ETV
attr interpolationmode  sample-hold
attr title  "tx state, vector"
vector 2999  ErlangenLTE.eNodeB20.x2ppp[2].queue  queueLength:vector  ETV
attr interpolationmode  sample-hold
attr title  "queue length, vector"
vector 3000  ErlangenLTE.eNodeB20.x2ppp[2].ppp  txState:vector  ETV
attr interpolationmode  sample-hold
attr title  "tx state, vector"
vector 3010  ErlangenLTE.eNodeB20.x2ppp[3].queue  queueLength:vector  ETV
attr interpolationmode  sample-hold
attr title  "queue length, vector"
vector 3011  ErlangenLTE.eNodeB20.x2ppp[3].ppp  txState:vector  ETV
attr interpolationmode  sample-hold
attr title  "tx state, vector"
vector 3067  ErlangenLTE.eNodeB21.pppIf.queue  queueLength:vector  ETV
attr interpolationmode  sample-hold
attr title  "queue length, vector"
vector 3068  ErlangenLTE.eNodeB21.pppIf.ppp  txState:vector  ETV
attr interpolationmode  sample-hold
attr title  "tx state, vector"
vector 3078  ErlangenLTE.eNodeB21.x2ppp[0].queue  queueLength:vector  ETV
attr interpolationmode  sample-hold
attr title  "queue length, vector"
vector 3079  ErlangenLTE.eNodeB21.x2ppp[0].ppp  txState:vector  ETV
attr interpolationmode  sample-hold
attr title  "tx state, vector"
vector 3089  ErlangenLTE.eNodeB21.x2ppp[1].queue  queueLength:vector  ETV
attr interpolationmode  sample-hold
attr title  "queue length, vector"
vector 3090  ErlangenLTE.eNodeB21.x2ppp[1].ppp  txState:vector  ETV
attr interpolationmode  sample-hold
attr title  "tx state, vector"
vector 3100  ErlangenLTE.eNodeB21.x2ppp[2].queue  queueLength:vector  ETV
attr interpolationmode  sample-hold
attr title  "queue length, vector"
vector 3101  ErlangenLTE.eNodeB21.x2ppp[2].ppp  txState:vector  ETV
attr interpolationmode  sample-hold
attr title  "tx state, vector"
vector 3154  ErlangenLTE.eNodeB22.pppIf.queue  queueLength:vector  ETV
attr interpolationmode  sample-hold
attr title  "queue length, vector"
vector 3155  ErlangenLTE.eNodeB22.pppIf.ppp  txState:vector  ETV
attr interpolationmode  sample-hold
attr title  "tx state, vector"
vector 3165  ErlangenLTE.eNodeB22.x2ppp[0].queue  queueLength:vector  ETV
attr interpolationmode  sample-hold
attr title  "queue length, vector"
vector 3166  ErlangenLTE.eNodeB22.x2ppp[0].ppp  txState:vector  ETV
attr interpolationmode  sample-hold
attr title  "tx state, vector"
vector 3176  ErlangenLTE.eNodeB22.x2ppp[1].queue  queueLength:vector  ETV
attr interpolationmode  sample-hold
attr title  "queue length, vector"
vector 3177  ErlangenLTE.eNodeB22.x2ppp[1].ppp  txState:vector  ETV
attr interpolationmode  sample-hold
attr title  "tx state, vector"
vector 3187  ErlangenLTE.eNodeB22.x2ppp[2].queue  queueLength:vector  ETV
attr interpolationmode  sample-hold
attr title  "queue length, vector"
vector 3188  ErlangenLTE.eNodeB22.x2ppp[2].ppp  txState:vector  ETV
attr interpolationmode  sample-hold
attr title  "tx state, vector"
vector 3198  ErlangenLTE.eNodeB22.x2ppp[3].queue  queueLength:vector  ETV
attr interpolationmode  sample-hold
attr title  "queue length, vector"
vector 3199  ErlangenLTE.eNodeB22.x2ppp[3].ppp  txState:vector  ETV
attr interpolationmode  sample-hold
attr title  "tx state, vector"
vector 3209  ErlangenLTE.eNodeB22.x2ppp[4].queue  queueLength:vector  ETV
attr interpolationmode  sample-hold
attr title  "queue length, vector"
vector 3210  ErlangenLTE.eNodeB22.x2ppp[4].ppp  txState:vector  ETV
attr interpolationmode  sample-hold
attr title  "tx state, vector"
vector 3220  ErlangenLTE.eNodeB22.x2ppp[5].queue  queueLength:vector  ETV
attr interpolationmode  sample-hold
attr title  "queue length, vector"
vector 3221  ErlangenLTE.eNodeB22.x2ppp[5].ppp  txState:vector  ETV
attr interpolationmode  sample-hold
attr title  "tx state, vector"
vector 3283  ErlangenLTE.eNodeB23.pppIf.queue  queueLength:vector  ETV
attr interpolationmode  sample-hold
attr title  "queue length, vector"
vector 3284  ErlangenLTE.eNodeB23.pppIf.ppp  txState:vector  ETV
attr interpolationmode  sample-hold
attr title  "tx state, vector"
vector 3294  ErlangenLTE.eNodeB23.x2ppp[0].queue  queueLength:vector  ETV
attr interpolationmode  sample-hold
attr title  "queue length, vector"
vector 3295  ErlangenLTE.eNodeB23.x2ppp[0].ppp  txState:vector  ETV
attr interpolationmode  sample-hold
attr title  "tx state, vector"
vector 3305  ErlangenLTE.eNodeB23.x2ppp[1].queue  queueLength:vector  ETV
attr interpolationmode  sample-hold
attr title  "queue length, vector"
vector 3306  ErlangenLTE.eNodeB23.x2ppp[1].ppp  txState:vector  ETV
attr interpolationmode  sample-hold
attr title  "tx state, vector"
vector 3316  ErlangenLTE.eNodeB23.x2ppp[2].queue  queueLength:vector  ETV
attr interpolationmode  sample-hold
attr title  "queue length, vector"
vector 3317  ErlangenLTE.eNodeB23.x2ppp[2].ppp  txState:vector  ETV
attr interpolationmode  sample-hold
attr title  "tx state, vector"
vector 3327  ErlangenLTE.eNodeB23.x2ppp[3].queue  queueLength:vector  ETV
attr interpolationmode  sample-hold
attr title  "queue length, vector"
vector 3328  ErlangenLTE.eNodeB23.x2ppp[3].ppp  txState:vector  ETV
attr interpolationmode  sample-hold
attr title  "tx state, vector"
vector 3384  ErlangenLTE.eNodeB24.pppIf.queue  queueLength:vector  ETV
attr interpolationmode  sample-hold
attr title  "queue length, vector"
vector 3385  ErlangenLTE.eNodeB24.pppIf.ppp  txState:vector  ETV
attr interpolationmode  sample-hold
attr title  "tx state, vector"
vector 3395  ErlangenLTE.eNodeB24.x2ppp[0].queue  queueLength:vector  ETV
attr interpolationmode  sample-hold
attr title  "queue length, vector"
vector 3396  ErlangenLTE.eNodeB24.x2ppp[0].ppp  txState:vector  ETV
attr interpolationmode  sample-hold
attr title  "tx state, vector"
vector 3406  ErlangenLTE.eNodeB24.x2ppp[1].queue  queueLength:vector  ETV
attr interpolationmode  sample-hold
attr title  "queue length, vector"
vector 3407  ErlangenLTE.eNodeB24.x2ppp[1].ppp  txState:vector  ETV
attr interpolationmode  sample-hold
attr title  "tx state, vector"
vector 3417  ErlangenLTE.eNodeB24.x2ppp[2].queue  queueLength:vector  ETV
attr interpolationmode  sample-hold
attr title  "queue length, vector"
vector 3418  ErlangenLTE.eNodeB24.x2ppp[2].ppp  txState:vector  ETV
attr interpolationmode  sample-hold
attr title  "tx state, vector"
vector 3428  ErlangenLTE.eNodeB24.x2ppp[3].queue  queueLength:vector  ETV
attr interpolationmode  sample-hold
attr title  "queue length, vector"
vector 3429  ErlangenLTE.eNodeB24.x2ppp[3].ppp  txState:vector  ETV
attr interpolationmode  sample-hold
attr title  "tx state, vector"
vector 3485  ErlangenLTE.eNodeB25.pppIf.queue  queueLength:vector  ETV
attr interpolationmode  sample-hold
attr title  "queue length, vector"
vector 3486  ErlangenLTE.eNodeB25.pppIf.ppp  txState:vector  ETV
attr interpolationmode  sample-hold
attr title  "tx state, vector"
vector 3496  ErlangenLTE.eNodeB25.x2ppp[0].queue  queueLength:vector  ETV
attr interpolationmode  sample-hold
attr title  "queue length, vector"
vector 3497  ErlangenLTE.eNodeB25.x2ppp[0].ppp  txState:vector  ETV
attr interpolationmode  sample-hold
attr title  "tx state, vector"
vector 3507  ErlangenLTE.eNodeB25.x2ppp[1].queue  queueLength:vector  ETV
attr interpolationmode  sample-hold
attr title  "queue length, vector"
vector 3508  ErlangenLTE.eNodeB25.x2ppp[1].ppp  txState:vector  ETV
attr interpolationmode  sample-hold
attr title  "tx state, vector"
vector 3518  ErlangenLTE.eNodeB25.x2ppp[2].queue  queueLength:vector  ETV
attr interpolationmode  sample-hold
attr title  "queue length, vector"
vector 3519  ErlangenLTE.eNodeB25.x2ppp[2].ppp  txState:vector  ETV
attr interpolationmode  sample-hold
attr title  "tx state, vector"
vector 3572  ErlangenLTE.eNodeB26.pppIf.queue  queueLength:vector  ETV
attr interpolationmode  sample-hold
attr title  "queue length, vector"
vector 3573  ErlangenLTE.eNodeB26.pppIf.ppp  txState:vector  ETV
attr interpolationmode  sample-hold
attr title  "tx state, vector"
vector 3583  ErlangenLTE.eNodeB26.x2ppp[0].queue  queueLength:vector  ETV
attr interpolationmode  sample-hold
attr title  "queue length, vector"
[...]
97313	844133 2640 399134 994248 2.008 4.385 120 68 68 8160 554880
97312	846773 2640 399134 994248 2.008 4.385 120 69 69 8280 571320
97322	849413 3801 399300 994650 2.008 4.386 181 0 0 0 0
97319	853214 3801 399300 994650 2.008 4.386 181 0 0 0 0
97336	857015 3801 398966 994244 2.007 4.385 181 0 0 0 0
97335	860816 3982 398966 994244 2.007 4.385 181 25 71 8642 476088
97334	864798 3982 398508 993700 2.004 4.382 181 27 73 9004 511380
97339	868780 3841 398507 993699 2.004 4.382 181 2 13 916 8464
97338	872621 18 391598 391598 2 2 1 42 42 42 1764
97343	872639 2530 421299 994243 2.107 4.385 115 40 40 4600 184000
97346	875169 2537 421298 994242 2.107 4.385 115 1 115 6670 513590
97345	877706 2530 421298 994242 2.107 4.385 115 48 48 5520 264960
97351	880236 2530 421295 994239 2.107 4.385 115 68 68 7820 531760
97350	882766 2530 421295 994239 2.107 4.385 115 69 69 7935 547515
97360	885296 2415 421634 994648 2.108 4.386 115 0 0 0 0
97357	887711 2415 421634 994648 2.108 4.386 115 0 0 0 0
97374	890126 2415 421291 994235 2.107 4.385 115 0 0 0 0
97373	892541 2530 421291 994235 2.107 4.385 115 71 71 8165 579715
97372	895071 2530 420815 993692 2.104 4.382 115 73 73 8395 612835
97377	897601 2530 420814 993691 2.104 4.382 115 15 15 1725 25875
97376	900131 20 419171 419171 2.1 2.1 1 30 30 30 900
97381	900151 836 443768 615249 2.207 2.945 38 40 40 1520 60800
97384	900987 827 443767 615248 2.207 2.945 38 1 38 741 19019
97383	901814 836 443767 615248 2.207 2.945 38 48 48 1824 87552
97389	902650 836 443764 615245 2.207 2.945 38 68 68 2584 175712
97388	903486 836 443764 615245 2.207 2.945 38 69 69 2622 180918
97398	904322 798 444105 615707 2.208 2.946 38 0 0 0 0
97395	905120 798 444105 615707 2.208 2.946 38 0 0 0 0
97412	905918 798 443760 615241 2.207 2.945 38 0 0 0 0
97411	906716 836 443760 615241 2.207 2.945 38 71 71 2698 191558
97410	907552 836 443273 614783 2.204 2.942 38 73 73 2774 202502
97415	908388 798 443272 614782 2.204 2.942 38 8 8 304 2432
97414	909186 20 441604 441604 2.2 2.2 1 57 57 57 3249
97419	909206 2112 466628 993230 2.307 4.381 96 40 40 3840 153600
97422	911318 2103 466627 993229 2.307 4.381 96 1 96 4656 299536
97421	913421 2112 466627 993229 2.307 4.381 96 48 48 4608 221184
97427	915533 2112 466624 993226 2.307 4.381 96 68 68 6528 443904
97426	917645 2112 466624 993226 2.307 4.381 96 69 69 6624 457056
97436	919757 2016 466968 993680 2.308 4.382 96 0 0 0 0
97433	921773 2016 466968 993680 2.308 4.382 96 0 0 0 0
97450	923789 2016 466620 993222 2.307 4.381 96 0 0 0 0
97449	925805 2112 466620 993222 2.307 4.381 96 71 71 6816 483936
97448	927917 2134 466121 997517 2.304 4.398 97 73 73 7081 516913
97453	930051 2134 466120 997516 2.304 4.398 97 15 15 1455 21825
97452	932185 44 464408 646995 2.3 3.05001 2 60 65 125 7825
97457	932229 2200 489506 994232 2.407 4.385 100 40 40 4000 160000
97460	934429 2192 489505 994231 2.407 4.385 100 1 100 5050 338350
97459	936621 2200 489505 994231 2.407 4.385 100 48 48 4800 230400
97465	938821 2200 489502 994228 2.407 4.385 100 68 68 6800 462400
97464	941021 2200 489502 994228 2.407 4.385 100 69 69 6900 476100
97474	943221 2100 489846 994646 2.408 4.386 100 0 0 0 0
97471	945321 2100 489846 994646 2.408 4.386 100 0 0 0 0
97488	947421 2100 489498 994224 2.407 4.385 100 0 0 0 0
97487	949521 2200 489498 994224 2.407 4.385 100 71 71 7100 504100
97486	951721 2200 489007 993694 2.404 4.382 100 73 73 7300 532900
97491	953921 2200 489006 993693 2.404 4.382 100 15 15 1500 22500
97490	956121 20 487330 487330 2.4 2.4 1 35 35 35 1225
97495	956141 1276 535007 820150 2.607 3.745 58 40 40 2320 92800
97498	957417 1267 535006 820149 2.607 3.745 58 1 58 1711 66729
97497	958684 1276 535006 820149 2.607 3.745 58 48 48 2784 133632
97503	959960 1276 535003 820146 2.607 3.745 58 68 68 3944 268192
97502	961236 1276 535003 820146 2.607 3.745 58 69 69 4002 276138
97512	962512 1197 535349 820585 2.608 3.746 57 0 0 0 0
97509	963709 1197 535349 820585 2.608 3.746 57 0 0 0 0
97526	964906 1197 534999 820142 2.607 3.745 57 0 0 0 0
97525	966103 1255 534999 820142 2.607 3.745 57 71 140 4116 301896
97524	967358 1255 534517 819663 2.604 3.742 57 73 142 4230 318588
97529	968613 1254 534516 819662 2.604 3.742 57 10 14 654 7716
97528	969867 44 532865 646994 2.6 3.05001 2 18 48 66 2628
97533	969911 1012 558332 838374 2.707 3.817 46 40 40 1840 73600
97536	970923 1003 558331 838373 2.707 3.817 46 1 46 1081 33511
97535	971926 1012 558331 838373 2.707 3.817 46 48 48 2208 105984
97541	972938 1012 558328 838370 2.707 3.817 46 68 68 3128 212704
97540	973950 1012 558328 838370 2.707 3.817 46 69 69 3174 219006
97550	974962 966 558677 838760 2.708 3.818 46 0 0 0 0
97547	975928 966 558677 838760 2.708 3.818 46 0 0 0 0
97564	976894 966 558324 838366 2.707 3.817 46 0 0 0 0
97563	977860 1012 558324 838366 2.707 3.817 46 71 71 3266 231886
97562	978872 1012 557830 837826 2.704 3.814 46 73 73 3358 245134
97567	979884 966 557829 837825 2.704 3.814 46 3 3 138 414
97566	980850 20 556134 556134 2.7 2.7 1 23 23 23 529
97571	980870 1474 582139 995946 2.807 4.392 67 40 40 2680 107200
97574	982344 1465 582138 995945 2.807 4.392 67 1 67 2278 102510
97573	983809 1474 582138 995945 2.807 4.392 67 48 48 3216 154368
97579	985283 1474 582135 995942 2.807 4.392 67 68 68 4556 309808
97578	986757 1474 582135 995942 2.807 4.392 67 69 69 4623 318987
97588	988231 1407 582486 996305 2.808 4.393 67 0 0 0 0
97585	989638 1407 582486 996305 2.808 4.393 67 0 0 0 0
97602	991045 1407 582131 995938 2.807 4.392 67 0 0 0 0
97601	992452 1474 582131 995938 2.807 4.392 67 71 71 4757 337747
97600	993926 1474 581632 995276 2.804 4.389 67 73 73 4891 357043
97605	995400 1474 581631 995275 2.804 4.389 67 15 15 1005 15075
97604	996874 20 579929 579929 2.8 2.8 1 26 26 26 676
97609	996894 1232 605997 894025 2.907 4.005 56 40 40 2240 89600
97612	998126 1223 605996 894024 2.907 4.005 56 1 56 1596 60116
97611	999349 1232 605996 894024 2.907 4.005 56 48 48 2688 129024
97617	1000581 1232 605993 894021 2.907 4.005 56 68 68 3808 258944
97616	1001813 1232 605993 894021 2.907 4.005 56 69 69 3864 266616
97626	1003045 1176 606350 894466 2.908 4.006 56 0 0 0 0
97623	1004221 1176 606350 894466 2.908 4.006 56 0 0 0 0
97640	1005397 1176 605989 894017 2.907 4.005 56 0 0 0 0
97639	1006573 1232 605989 894017 2.907 4.005 56 71 71 3976 282296
97638	1007805 1254 605442 997721 2.904 4.399 57 73 73 4161 303753
97643	1009059 1254 605441 997720 2.904 4.399 57 15 15 855 12825
97642	1010313 20 603707 603707 2.9 2.9 1 46 46 46 2116
97647	1010333 990 636321 997559 3.007 4.399 45 40 40 1800 72000
97650	1011323 981 636320 997558 3.007 4.399 45 1 45 1035 31395
97649	1012304 990 636320 997558 3.007 4.399 45 48 48 2160 103680
97655	1013294 990 636317 997555 3.007 4.399 45 68 68 3060 208080
97654	1014284 990 636317 997555 3.007 4.399 45 69 69 3105 214245
97664	1015274 886 636679 992854 3.008 4.38 44 0 0 0 0
97661	1016160 886 636679 992854 3.008 4.38 44 0 0 0 0
97678	1017046 945 636313 997551 3.007 4.399 45 0 0 0 0
97677	1017991 990 636313 997551 3.007 4.399 45 71 71 3195 226845
97676	1018981 990 635761 997058 3.004 4.396 45 73 73 3285 239805
97681	1019971 990 635760 997057 3.004 4.396 45 15 15 675 10125
97680	1020961 18 628024 628024 3 3 1 50 50 50 2500
96773	1020979 2654 81036 860873 0.413 3.902 121 40 40 4840 193600
96776	1023633 2667 81035 860872 0.413 3.902 121 1 121 7381 597861
96775	1026300 2654 81035 860872 0.413 3.902 121 48 48 5808 278784
96781	1028954 2654 81032 860869 0.413 3.902 121 68 68 8228 559504
96780	1031608 2654 81032 860869 0.413 3.902 121 69 69 8349 576081
96796	1034262 21 708673 708673 3.301 3.301 1 0 0 0 0
96793	1034283 502 81311 836409 0.414 3.808 24 0 1 1 1
96790	1034785 5034 80226 861252 0.408 3.903 241 0 1 24 24
96787	1039819 5557 80226 861252 0.408 3.903 266 0 1 25 25
96804	1045376 5570 79947 860865 0.407 3.902 266 0 0 0 0
96803	1050946 5288 80083 860865 0.408 3.902 241 25 71 8831 353833
96802	1056234 5835 79646 859700 0.404 3.899 266 27 73 10528 449674
96807	1062069 5572 79645 859699 0.404 3.899 266 2 15 570 1698
96806	1067641 19 78594 78594 0.4 0.4 1 15 15 15 225
97685	1067660 946 684872 997550 3.207 4.399 43 40 40 1720 68800
97688	1068606 937 684871 997549 3.207 4.399 43 1 43 946 27434
97687	1069543 946 684871 997549 3.207 4.399 43 48 48 2064 99072
97693	1070489 946 684868 997546 3.207 4.399 43 68 68 2924 198832
97692	1071435 946 684868 997546 3.207 4.399 43 69 69 2967 204723
97702	1072381 867 685236 992852 3.208 4.38 42 0 0 0 0
97699	1073248 867 685236 992852 3.208 4.38 42 0 0 0 0
97716	1074115 903 684864 997542 3.207 4.399 43 0 0 0 0
97715	1075018 946 684864 997542 3.207 4.399 43 71 71 3053 216763
97714	1075964 946 684304 997060 3.204 4.396 43 73 73 3139 229147
97719	1076910 946 684303 997059 3.204 4.396 43 15 15 645 9675
97718	1077856 20 682549 682549 3.2 3.2 1 65 65 65 4225
98136	1077876 20 997722 997722 4.4 4.4 1 41 41 41 1681
97723	1077896 1078 734725 994898 3.407 4.388 49 40 40 1960 78400
97726	1078974 1069 734724 994897 3.407 4.388 49 1 49 1225 40425
97725	1080043 1078 734724 994897 3.407 4.388 49 48 48 2352 112896
97731	1081121 1078 734721 994894 3.407 4.388 49 68 68 3332 226576
97730	1082199 1078 734721 994894 3.407 4.388 49 69 69 3381 233289
97740	1083277 1029 735125 995274 3.408 4.389 49 0 0 0 0
97737	1084306 1029 735125 995274 3.408 4.389 49 0 0 0 0
97754	1085335 1029 734717 994890 3.407 4.388 49 0 0 0 0
97753	1086364 1078 734717 994890 3.407 4.388 49 71 71 3479 247009
97752	1087442 1078 734209 994426 3.404 4.385 49 73 73 3577 261121
97757	1088520 1078 734208 994425 3.404 4.385 49 15 15 735 11025
97756	1089598 20 732471 732471 3.4 3.4 1 25 25 25 625
97761	1089618 990 759671 994216 3.507 4.385 45 40 40 1800 72000
97764	1090608 981 759670 994215 3.507 4.385 45 1 45 1035 31395
97763	1091589 990 759670 994215 3.507 4.385 45 48 48 2160 103680
97769	1092579 990 759667 994212 3.507 4.385 45 68 68 3060 208080
97768	1093569 990 759667 994212 3.507 4.385 45 69 69 3105 214245
97778	1094559 945 760068 994644 3.508 4.386 45 0 0 0 0
97775	1095504 945 760068 994644 3.508 4.386 45 0 0 0 0
97792	1096449 945 759663 994208 3.507 4.385 45 0 0 0 0
97791	1097394 990 759663 994208 3.507 4.385 45 71 71 3195 226845
97790	1098384 990 759145 993682 3.504 4.382 45 73 73 3285 239805
97795	1099374 990 759144 993681 3.504 4.382 45 15 15 675 10125
97794	1100364 19 757395 757395 3.5 3.5 1 3 3 3 9
97799	1100383 880 784873 994207 3.607 4.385 40 40 40 1600 64000
97802	1101263 871 784872 994206 3.607 4.385 40 1 40 820 22140
97801	1102134 880 784872 994206 3.607 4.385 40 48 48 1920 92160
97807	1103014 880 784869 994203 3.607 4.385 40 68 68 2720 184960
97806	1103894 880 784869 994203 3.607 4.385 40 69 69 2760 190440
97816	1104774 840 785272 994642 3.608 4.386 40 0 0 0 0
97813	1105614 840 785272 994642 3.608 4.386 40 0 0 0 0
97830	1106454 840 784865 994199 3.607 4.385 40 0 0 0 0
97829	1107294 880 784865 994199 3.607 4.385 40 71 71 2840 201640
97828	1108174 880 784337 993684 3.604 4.382 40 73 73 2920 213160
97833	1109054 840 784336 993683 3.604 4.382 40 7 7 280 1960
97832	1109894 20 782543 782543 3.6 3.6 1 15 15 15 225
98027	1109914 220 946429 994152 4.207 4.385 10 40 40 400 16000
98030	1110134 211 946428 994151 4.207 4.385 10 1 10 55 385
98029	1110345 220 946428 994151 4.207 4.385 10 48 48 480 23040
98035	1110565 220 946425 994148 4.207 4.385 10 68 68 680 46240
98034	1110785 220 946425 994148 4.207 4.385 10 69 69 690 47610
98044	1111005 210 946867 994630 4.208 4.386 10 0 0 0 0
98041	1111215 210 946867 994630 4.208 4.386 10 0 0 0 0
98058	1111425 210 946421 994144 4.207 4.385 10 0 0 0 0
98057	1111635 220 946421 994144 4.207 4.385 10 71 71 710 50410
98056	1111855 220 945887 993688 4.204 4.382 10 73 73 730 53290
98061	1112075 220 945886 993687 4.204 4.382 10 15 15 150 2250
98060	1112295 20 944021 944021 4.2 4.2 1 23 23 23 529
97875	1112315 396 835991 930149 3.807 4.145 18 40 40 720 28800
97878	1112711 387 835990 930148 3.807 4.145 18 1 18 171 2109
97877	1113098 396 835990 930148 3.807 4.145 18 48 48 864 41472
97883	1113494 396 835987 930145 3.807 4.145 18 68 68 1224 83232
97882	1113890 396 835987 930145 3.807 4.145 18 69 69 1242 85698
97892	1114286 378 836407 930598 3.808 4.146 18 0 0 0 0
97889	1114664 378 836407 930598 3.808 4.146 18 0 0 0 0
97906	1115042 378 835983 930141 3.807 4.145 18 0 0 0 0
97905	1115420 396 835983 930141 3.807 4.145 18 71 71 1278 90738
97904	1115816 396 835449 929611 3.804 4.142 18 73 73 1314 95922
97909	1116212 378 835448 929610 3.804 4.142 18 9 9 162 1458
97908	1116590 19 833660 833660 3.8 3.8 1 2 2 2 4
97913	1116609 550 862060 994188 3.907 4.385 25 40 40 1000 40000
97916	1117159 541 862059 994187 3.907 4.385 25 1 25 325 5525
97915	1117700 550 862059 994187 3.907 4.385 25 48 48 1200 57600
97921	1118250 550 862056 994184 3.907 4.385 25 68 68 1700 115600
97920	1118800 550 862056 994184 3.907 4.385 25 69 69 1725 119025
97930	1119350 525 862477 994638 3.908 4.386 25 0 0 0 0
97927	1119875 525 862477 994638 3.908 4.386 25 0 0 0 0
97944	1120400 525 862052 994180 3.907 4.385 25 0 0 0 0
97943	1120925 550 862052 994180 3.907 4.385 25 71 71 1775 126025
97942	1121475 550 861523 993690 3.904 4.382 25 73 73 1825 133225
97947	1122025 525 861522 993689 3.904 4.382 25 6 6 150 900
97946	1122550 20 859701 859701 3.9 3.9 1 26 26 26 676
97951	1122570 440 894501 994179 4.007 4.385 20 40 40 800 32000
97954	1123010 431 894500 994178 4.007 4.385 20 1 20 210 2870
97953	1123441 440 894500 994178 4.007 4.385 20 48 48 960 46080
97959	1123881 440 894497 994175 4.007 4.385 20 68 68 1360 92480
97958	1124321 440 894497 994175 4.007 4.385 20 69 69 1380 95220
97968	1124761 420 894916 994636 4.008 4.386 20 0 0 0 0
97965	1125181 420 894916 994636 4.008 4.386 20 0 0 0 0
97982	1125601 420 894493 994171 4.007 4.385 20 0 0 0 0
97981	1126021 440 894493 994171 4.007 4.385 20 71 71 1420 100820
97980	1126461 440 893952 993696 4.004 4.382 20 73 73 1460 106580
97985	1126901 440 893951 993695 4.004 4.382 20 15 15 300 4500
97984	1127341 18 885656 885656 4 4 1 35 35 35 1225
96811	1127359 4289 96960 994289 0.507 4.385 195 40 40 7800 312000
96814	1131648 4376 96959 994288 0.507 4.385 195 1 195 19110 2490670
96813	1136024 4289 96959 994288 0.507 4.385 195 48 48 9360 449280
96819	1140313 4289 96956 994285 0.507 4.385 195 68 68 13260 901680
96818	1144602 4289 96956 994285 0.507 4.385 195 69 69 13455 928395
96828	1148891 4094 97241 994656 0.508 4.386 195 0 0 0 0
96825	1152985 4094 97241 994656 0.508 4.386 195 0 0 0 0
96842	1157079 4094 96952 994281 0.507 4.385 195 0 0 0 0
96841	1161173 4289 96952 994281 0.507 4.385 195 71 71 13845 982995
96840	1165462 4288 96642 993702 0.504 4.382 195 73 73 14235 1039155
96845	1169750 4288 96641 993701 0.504 4.382 195 15 15 2925 43875
96844	1174038 19 95542 95542 0.5 0.5 1 50 50 50 2500
97989	1174057 330 920243 994170 4.107 4.385 15 40 40 600 24000
97992	1174387 321 920242 994169 4.107 4.385 15 1 15 120 1240
97991	1174708 330 920242 994169 4.107 4.385 15 48 48 720 34560
97997	1175038 330 920239 994166 4.107 4.385 15 68 68 1020 69360
97996	1175368 330 920239 994166 4.107 4.385 15 69 69 1035 71415
98006	1175698 315 920667 994634 4.108 4.386 15 0 0 0 0
98003	1176013 315 920667 994634 4.108 4.386 15 0 0 0 0
98020	1176328 315 920235 994162 4.107 4.385 15 0 0 0 0
98019	1176643 330 920235 994162 4.107 4.385 15 71 71 1065 75615
98018	1176973 330 919700 993706 4.104 4.382 15 73 73 1095 79935
98023	1177303 330 919699 993705 4.104 4.382 15 15 15 225 3375
98022	1177633 20 917915 917915 4.1 4.1 1 61 61 61 3721
98065	1177653 220 946438 994161 4.207 4.385 10 40 40 400 16000
98068	1177873 211 946437 994160 4.207 4.385 10 1 10 55 385
98067	1178084 220 946437 994160 4.207 4.385 10 48 48 480 23040
98073	1178304 220 946434 994157 4.207 4.385 10 68 68 680 46240
98072	1178524 220 946434 994157 4.207 4.385 10 69 69 690 47610
98082	1178744 210 946869 994632 4.208 4.386 10 0 0 0 0
98079	1178954 210 946869 994632 4.208 4.386 10 0 0 0 0
98096	1179164 210 946430 994153 4.207 4.385 10 0 0 0 0
98095	1179374 220 946430 994153 4.207 4.385 10 71 71 710 50410
98094	1179594 220 945885 993686 4.204 4.382 10 73 73 730 53290
98099	1179814 220 945884 993685 4.204 4.382 10 13 13 130 1690
98098	1180034 20 944021 944021 4.2 4.2 1 21 21 21 441
98174	1180054 20 997722 997722 4.4 4.4 1 37 37 37 1369
96849	1180074 3542 114345 971934 0.607 4.301 161 40 40 6440 257600
96852	1183616 3595 114344 971933 0.607 4.301 161 1 161 13041 1404081
96851	1187211 3542 114344 971933 0.607 4.301 161 48 48 7728 370944
96857	1190753 3542 114341 971930 0.607 4.301 161 68 68 10948 744464
96856	1194295 3542 114341 971930 0.607 4.301 161 69 69 11109 766521
96866	1197837 3381 114626 972364 0.608 4.302 161 0 0 0 0
96863	1201218 3381 114626 972364 0.608 4.302 161 0 0 0 0
96880	1204599 3381 114337 971926 0.607 4.301 161 0 0 0 0
96879	1207980 3542 114337 971926 0.607 4.301 161 71 71 11431 811601
96878	1211522 3542 114011 970836 0.604 4.298 161 73 73 11753 857969
96883	1215064 3541 114010 970835 0.604 4.298 161 9 15 2232 31102
96882	1218605 20 112869 112869 0.6 0.6 1 57 57 57 3249
96887	1218625 1970 132130 992693 0.707 4.38 93 40 40 3720 148800
96890	1220595 1961 132129 992692 0.707 4.38 93 1 93 4371 272459
96889	1222556 1970 132129 992692 0.707 4.38 93 48 48 4464 214272
96895	1224526 1970 132126 992689 0.707 4.38 93 68 68 6324 430032
96894	1226496 1970 132126 992689 0.707 4.38 93 69 69 6417 442773
96904	1228466 1911 132416 993455 0.708 4.381 91 0 0 0 0
96901	1230377 1911 132416 993455 0.708 4.381 91 0 0 0 0
96918	1232288 1835 132122 992685 0.707 4.38 91 0 0 0 0
96917	1234123 1927 132122 992685 0.707 4.38 91 71 209 6599 497371
96916	1236050 2025 131780 997278 0.704 4.397 92 73 211 6854 529460
96921	1238075 2024 131779 997277 0.704 4.397 92 10 15 1212 16216
96920	1240099 44 130594 200800 0.7 1.05001 2 25 52 77 3329
96925	1240143 1914 150141 996358 0.807 4.394 87 40 40 3480 139200
96928	1242057 1905 150140 996357 0.807 4.394 87 1 87 3828 223300
96927	1243962 1914 150140 996357 0.807 4.394 87 48 48 4176 200448
96933	1245876 1914 150137 996354 0.807 4.394 87 68 68 5916 402288
96932	1247790 1914 150137 996354 0.807 4.394 87 69 69 6003 414207
96942	1249704 1827 150431 996806 0.808 4.395 87 0 0 0 0
96939	1251531 1827 150431 996806 0.808 4.395 87 0 0 0 0
96956	1253358 1827 150133 996350 0.807 4.394 87 0 0 0 0
96955	1255185 1914 150133 996350 0.807 4.394 87 71 71 6177 438567
96954	1257099 1914 149792 995911 0.804 4.391 87 73 73 6351 463623
96959	1259013 1914 149791 995910 0.804 4.391 87 15 15 1305 19575
96958	1260927 20 148597 148597 0.8 0.8 1 47 47 47 2209
96963	1260947 3696 168772 957095 0.908 4.246 168 40 40 6720 268800
96966	1264643 3756 168771 957094 0.908 4.246 168 1 168 14196 1594684
96965	1268399 3696 168771 957094 0.908 4.246 168 48 48 8064 387072
96971	1272095 3696 168768 957091 0.908 4.246 168 68 68 11424 776832
96970	1275791 3696 168768 957091 0.908 4.246 168 69 69 11592 799848
96983	1279487 84 513443 884351 2.512 3.993 4 0 0 0 0
96980	1279571 6216 168922 957474 0.908 4.247 296 0 1 4 4
96977	1285787 6300 168922 957474 0.908 4.247 300 0 1 4 4
96994	1292087 6300 168588 957087 0.907 4.246 300 0 0 0 0
96993	1298387 6512 168588 957087 0.907 4.246 296 25 71 12184 576552
96992	1304899 6600 168228 956468 0.904 4.243 300 27 73 12976 637530
96997	1311499 6301 168227 956467 0.904 4.243 300 2 13 651 1565
96996	1317800 20 166986 166986 0.9 0.9 1 44 44 44 1936
97001	1317820 1757 192319 725629 1.007 3.37 81 40 40 3240 129600
97004	1319577 1748 192318 725628 1.007 3.37 81 1 81 3321 180441
97003	1321325 1757 192318 725628 1.007 3.37 81 48 48 3888 186624
97009	1323082 1757 192315 725625 1.007 3.37 81 68 68 5508 374544
97008	1324839 1757 192315 725625 1.007 3.37 81 69 69 5589 385641
97018	1326596 1701 192653 725960 1.008 3.371 81 0 0 0 0
97015	1328297 1701 192653 725960 1.008 3.371 81 0 0 0 0
97032	1329998 1676 192311 725621 1.007 3.37 81 0 0 0 0
97031	1331674 1757 192311 725621 1.007 3.37 81 71 71 5751 408321
97030	1333431 1782 191945 724991 1.004 3.367 81 73 73 5913 431649
97035	1335213 1781 191944 724990 1.004 3.367 81 8 15 1159 16835
97034	1336994 18 185851 185851 1 1 1 64 64 64 4096
