file 234331 1548932196                                          
version 2
run VoIP-DL-0-20190131-10:12:50-14175
attr configname VoIP-DL
attr datetime 20190131-10:12:50
attr experiment VoIP-DL
attr inifile omnetpp.ini
attr iterationvars ""
attr iterationvarsf ""
attr measurement ""
attr network ErlangenLTE
attr processid 14175
attr repetition 0
attr replication #0
attr resultdir results
attr runnumber 0
attr seedset 0
param **.broadcastMessageInterval 1s
param **.car[*].macCellId 1
param **.car[*].masterId 1
param **.channelControl.alpha 1.0
param **.channelControl.carrierFrequency 2100e+6Hz
param **.channelControl.pMax 10W
param **.coreDebug false
param **.deployer.antennaCws "\"2;\""
param **.deployer.numRbDl 25
param **.deployer.numRbUl 25
param **.deployer.positionUpdateInterval 0.001s
param **.deployer.ruRange 50
param **.deployer.ruTxPower "\"50,50,50;\""
param **.dynamicCellAssociation true
param **.eNodeB*.mobility.constraintAreaMaxX 3000m
param **.eNodeB*.mobility.constraintAreaMaxY 3000m
param **.eNodeB*.mobility.constraintAreaMaxZ 0m
param **.eNodeB*.mobility.constraintAreaMinX 0m
param **.eNodeB*.mobility.constraintAreaMinY 0m
param **.eNodeB*.mobility.constraintAreaMinZ 0m
param **.eNodeB*.mobility.initFromDisplayString true
param **.eNodeB1.macCellId 1
param **.eNodeB1.macNodeId 1
param **.eNodeB10.macCellId 10
param **.eNodeB10.macNodeId 10
param **.eNodeB11.macCellId 11
param **.eNodeB11.macNodeId 11
param **.eNodeB12.macCellId 12
param **.eNodeB12.macNodeId 12
param **.eNodeB13.macCellId 13
param **.eNodeB13.macNodeId 13
param **.eNodeB14.macCellId 14
param **.eNodeB14.macNodeId 14
param **.eNodeB15.macCellId 15
param **.eNodeB15.macNodeId 15
param **.eNodeB16.macCellId 16
param **.eNodeB16.macNodeId 16
param **.eNodeB17.macCellId 17
param **.eNodeB17.macNodeId 17
param **.eNodeB18.macCellId 18
param **.eNodeB18.macNodeId 18
param **.eNodeB19.macCellId 19
param **.eNodeB19.macNodeId 19
param **.eNodeB2.macCellId 2
param **.eNodeB2.macNodeId 2
param **.eNodeB20.macCellId 20
param **.eNodeB20.macNodeId 20
param **.eNodeB21.macCellId 21
param **.eNodeB21.macNodeId 21
param **.eNodeB22.macCellId 22
param **.eNodeB22.macNodeId 22
param **.eNodeB23.macCellId 23
param **.eNodeB23.macNodeId 23
param **.eNodeB24.macCellId 24
param **.eNodeB24.macNodeId 24
param **.eNodeB25.macCellId 25
param **.eNodeB25.macNodeId 25
param **.eNodeB26.macCellId 26
param **.eNodeB26.macNodeId 26
param **.eNodeB27.macCellId 27
param **.eNodeB27.macNodeId 27
param **.eNodeB28.macCellId 28
param **.eNodeB28.macNodeId 28
param **.eNodeB29.macCellId 29
param **.eNodeB29.macNodeId 29
param **.eNodeB3.macCellId 3
param **.eNodeB3.macNodeId 3
param **.eNodeB30.macCellId 30
param **.eNodeB30.macNodeId 30
param **.eNodeB31.macCellId 31
param **.eNodeB31.macNodeId 31
param **.eNodeB32.macCellId 32
param **.eNodeB32.macNodeId 32
param **.eNodeB33.macCellId 33
param **.eNodeB33.macNodeId 33
param **.eNodeB34.macCellId 34
param **.eNodeB34.macNodeId 34
param **.eNodeB35.macCellId 35
param **.eNodeB35.macNodeId 35
param **.eNodeB36.macCellId 36
param **.eNodeB36.macNodeId 36
param **.eNodeB37.macCellId 37
param **.eNodeB37.macNodeId 37
param **.eNodeB38.macCellId 38
param **.eNodeB38.macNodeId 38
param **.eNodeB39.macCellId 39
param **.eNodeB39.macNodeId 39
param **.eNodeB4.macCellId 4
param **.eNodeB4.macNodeId 4
param **.eNodeB40.macCellId 40
param **.eNodeB40.macNodeId 40
param **.eNodeB41.macCellId 41
param **.eNodeB41.macNodeId 41
param **.eNodeB42.macCellId 42
param **.eNodeB42.macNodeId 42
param **.eNodeB43.macCellId 43
param **.eNodeB43.macNodeId 43
param **.eNodeB44.macCellId 44
param **.eNodeB44.macNodeId 44
param **.eNodeB45.macCellId 45
param **.eNodeB45.macNodeId 45
param **.eNodeB46.macCellId 46
param **.eNodeB46.macNodeId 46
param **.eNodeB47.macCellId 47
param **.eNodeB47.macNodeId 47
param **.eNodeB48.macCellId 48
param **.eNodeB48.macNodeId 48
param **.eNodeB49.macCellId 49
param **.eNodeB49.macNodeId 49
param **.eNodeB5.macCellId 5
param **.eNodeB5.macNodeId 5
param **.eNodeB50.macCellId 50
param **.eNodeB50.macNodeId 50
param **.eNodeB51.macCellId 51
param **.eNodeB51.macNodeId 51
param **.eNodeB52.macCellId 52
param **.eNodeB52.macNodeId 52
param **.eNodeB53.macCellId 53
param **.eNodeB53.macNodeId 53
param **.eNodeB54.macCellId 54
param **.eNodeB54.macNodeId 54
param **.eNodeB55.macCellId 55
param **.eNodeB55.macNodeId 55
param **.eNodeB56.macCellId 56
param **.eNodeB56.macNodeId 56
param **.eNodeB57.macCellId 57
param **.eNodeB57.macNodeId 57
param **.eNodeB58.macCellId 58
param **.eNodeB58.macNodeId 58
param **.eNodeB59.macCellId 59
param **.eNodeB59.macNodeId 59
param **.eNodeB6.macCellId 6
param **.eNodeB6.macNodeId 6
param **.eNodeB60.macCellId 60
param **.eNodeB60.macNodeId 60
param **.eNodeB61.macCellId 61
param **.eNodeB61.macNodeId 61
param **.eNodeB62.macCellId 62
param **.eNodeB62.macNodeId 62
param **.eNodeB63.macCellId 63
param **.eNodeB63.macNodeId 63
param **.eNodeB64.macCellId 64
param **.eNodeB64.macNodeId 64
param **.eNodeB65.macCellId 65
param **.eNodeB65.macNodeId 65
param **.eNodeB66.macCellId 66
param **.eNodeB66.macNodeId 66
param **.eNodeB7.macCellId 7
param **.eNodeB7.macNodeId 7
param **.eNodeB8.macCellId 8
param **.eNodeB8.macNodeId 8
param **.eNodeB9.macCellId 9
param **.eNodeB9.macNodeId 9
param **.eNodeBCount 66
param **.enableHandover false
param **.fbDelay 1
param **.feedbackComputation "xmldoc(\"config_channel.xml\")"
param **.feedbackGeneratorType "\"IDEAL\""
param **.feedbackType "\"ALLBANDS\""
param **.lteNic.phy.channelModel "xmldoc(\"config_channel.xml\")"
param **.maxHarqRtx 3
param **.numBands 25
param **.numUe 250
param **.rbAllocationType "\"localized\""
param **.routingRecorder.enabled false
param **.sctp.enableHeartbeats false
param **.sctp.nagleEnabled false
param *.annotations.draw true
param *.car[*].configurator.mcastGroups "\"224.0.0.10\""
param *.car[*].mobilityType "\"VeinsInetMobility\""
param *.car[*].numUdpApps 1
param *.car[*].udpApp[0].typename "\"VoIPReceiver\""
param *.eNodeB*.x2App[*].server.localPort "5000 + ancestorIndex(1)"
param *.eNodeB1.numX2Apps 12
param *.eNodeB1.x2App[0].client.connectAddress "\"eNodeB22%x2ppp0\""
param *.eNodeB1.x2App[10].client.connectAddress "\"eNodeB54%x2ppp0\""
param *.eNodeB1.x2App[11].client.connectAddress "\"eNodeB66%x2ppp0\""
param *.eNodeB1.x2App[1].client.connectAddress "\"eNodeB41%x2ppp0\""
param *.eNodeB1.x2App[2].client.connectAddress "\"eNodeB50%x2ppp0\""
param *.eNodeB1.x2App[3].client.connectAddress "\"eNodeB6%x2ppp0\""
param *.eNodeB1.x2App[4].client.connectAddress "\"eNodeB11%x2ppp0\""
param *.eNodeB1.x2App[5].client.connectAddress "\"eNodeB14%x2ppp0\""
param *.eNodeB1.x2App[6].client.connectAddress "\"eNodeB37%x2ppp0\""
param *.eNodeB1.x2App[7].client.connectAddress "\"eNodeB42%x2ppp0\""
param *.eNodeB1.x2App[8].client.connectAddress "\"eNodeB43%x2ppp0\""
param *.eNodeB1.x2App[9].client.connectAddress "\"eNodeB45%x2ppp0\""
param *.eNodeB10.numX2Apps 11
param *.eNodeB10.x2App[0].client.connectAddress "\"eNodeB7%x2ppp2\""
param *.eNodeB10.x2App[10].client.connectAddress "\"eNodeB64%x2ppp0\""
param *.eNodeB10.x2App[1].client.connectAddress "\"eNodeB8%x2ppp1\""
param *.eNodeB10.x2App[2].client.connectAddress "\"eNodeB13%x2ppp2\""
param *.eNodeB10.x2App[3].client.connectAddress "\"eNodeB57%x2ppp2\""
param *.eNodeB10.x2App[4].client.connectAddress "\"eNodeB63%x2ppp2\""
param *.eNodeB10.x2App[5].client.connectAddress "\"eNodeB28%x2ppp0\""
param *.eNodeB10.x2App[6].client.connectAddress "\"eNodeB31%x2ppp2\""
param *.eNodeB10.x2App[7].client.connectAddress "\"eNodeB35%x2ppp2\""
param *.eNodeB10.x2App[8].client.connectAddress "\"eNodeB47%x2ppp3\""
param *.eNodeB10.x2App[9].client.connectAddress "\"eNodeB60%x2ppp0\""
param *.eNodeB11.numX2Apps 6
param *.eNodeB11.x2App[0].client.connectAddress "\"eNodeB1%x2ppp1\""
param *.eNodeB11.x2App[1].client.connectAddress "\"eNodeB22%x2ppp1\""
param *.eNodeB11.x2App[2].client.connectAddress "\"eNodeB40%x2ppp0\""
param *.eNodeB11.x2App[3].client.connectAddress "\"eNodeB54%x2ppp1\""
param *.eNodeB11.x2App[4].client.connectAddress "\"eNodeB14%x2ppp2\""
param *.eNodeB11.x2App[5].client.connectAddress "\"eNodeB66%x2ppp3\""
param *.eNodeB12.numX2Apps 8
param *.eNodeB12.x2App[0].client.connectAddress "\"eNodeB3%x2ppp0\""
param *.eNodeB12.x2App[1].client.connectAddress "\"eNodeB30%x2ppp1\""
param *.eNodeB12.x2App[2].client.connectAddress "\"eNodeB62%x2ppp1\""
param *.eNodeB12.x2App[3].client.connectAddress "\"eNodeB32%x2ppp2\""
param *.eNodeB12.x2App[4].client.connectAddress "\"eNodeB38%x2ppp0\""
param *.eNodeB12.x2App[5].client.connectAddress "\"eNodeB44%x2ppp0\""
param *.eNodeB12.x2App[6].client.connectAddress "\"eNodeB46%x2ppp2\""
param *.eNodeB12.x2App[7].client.connectAddress "\"eNodeB55%x2ppp2\""
param *.eNodeB13.numX2Apps 9
param *.eNodeB13.x2App[0].client.connectAddress "\"eNodeB7%x2ppp3\""
param *.eNodeB13.x2App[1].client.connectAddress "\"eNodeB8%x2ppp2\""
param *.eNodeB13.x2App[2].client.connectAddress "\"eNodeB10%x2ppp2\""
param *.eNodeB13.x2App[3].client.connectAddress "\"eNodeB31%x2ppp3\""
param *.eNodeB13.x2App[4].client.connectAddress "\"eNodeB63%x2ppp3\""
param *.eNodeB13.x2App[5].client.connectAddress "\"eNodeB28%x2ppp1\""
param *.eNodeB13.x2App[6].client.connectAddress "\"eNodeB35%x2ppp3\""
param *.eNodeB13.x2App[7].client.connectAddress "\"eNodeB47%x2ppp4\""
param *.eNodeB13.x2App[8].client.connectAddress "\"eNodeB57%x2ppp3\""
param *.eNodeB14.numX2Apps 14
param *.eNodeB14.x2App[0].client.connectAddress "\"eNodeB1%x2ppp2\""
param *.eNodeB14.x2App[10].client.connectAddress "\"eNodeB45%x2ppp2\""
param *.eNodeB14.x2App[11].client.connectAddress "\"eNodeB50%x2ppp2\""
param *.eNodeB14.x2App[12].client.connectAddress "\"eNodeB54%x2ppp2\""
param *.eNodeB14.x2App[13].client.connectAddress "\"eNodeB58%x2ppp1\""
param *.eNodeB14.x2App[1].client.connectAddress "\"eNodeB6%x2ppp1\""
param *.eNodeB14.x2App[2].client.connectAddress "\"eNodeB11%x2ppp1\""
param *.eNodeB14.x2App[3].client.connectAddress "\"eNodeB41%x2ppp2\""
param *.eNodeB14.x2App[4].client.connectAddress "\"eNodeB66%x2ppp4\""
param *.eNodeB14.x2App[5].client.connectAddress "\"eNodeB22%x2ppp2\""
param *.eNodeB14.x2App[6].client.connectAddress "\"eNodeB27%x2ppp2\""
param *.eNodeB14.x2App[7].client.connectAddress "\"eNodeB37%x2ppp2\""
param *.eNodeB14.x2App[8].client.connectAddress "\"eNodeB42%x2ppp2\""
param *.eNodeB14.x2App[9].client.connectAddress "\"eNodeB43%x2ppp1\""
param *.eNodeB15.numX2Apps 6
param *.eNodeB15.x2App[0].client.connectAddress "\"eNodeB28%x2ppp2\""
param *.eNodeB15.x2App[1].client.connectAddress "\"eNodeB60%x2ppp1\""
param *.eNodeB15.x2App[2].client.connectAddress "\"eNodeB64%x2ppp1\""
param *.eNodeB15.x2App[3].client.connectAddress "\"eNodeB24%x2ppp0\""
param *.eNodeB15.x2App[4].client.connectAddress "\"eNodeB59%x2ppp0\""
param *.eNodeB15.x2App[5].client.connectAddress "\"eNodeB16%x2ppp0\""
param *.eNodeB16.numX2Apps 3
param *.eNodeB16.x2App[0].client.connectAddress "\"eNodeB15%x2ppp0\""
param *.eNodeB16.x2App[1].client.connectAddress "\"eNodeB59%x2ppp1\""
param *.eNodeB16.x2App[2].client.connectAddress "\"eNodeB61%x2ppp0\""
param *.eNodeB17.numX2Apps 4
param *.eNodeB17.x2App[0].client.connectAddress "\"eNodeB4%x2ppp0\""
param *.eNodeB17.x2App[1].client.connectAddress "\"eNodeB20%x2ppp1\""
param *.eNodeB17.x2App[2].client.connectAddress "\"eNodeB49%x2ppp1\""
param *.eNodeB17.x2App[3].client.connectAddress "\"eNodeB56%x2ppp0\""
param *.eNodeB18.numX2Apps 3
param *.eNodeB18.x2App[0].client.connectAddress "\"eNodeB19%x2ppp0\""
param *.eNodeB18.x2App[1].client.connectAddress "\"eNodeB40%x2ppp1\""
param *.eNodeB18.x2App[2].client.connectAddress "\"eNodeB48%x2ppp0\""
param *.eNodeB19.numX2Apps 5
param *.eNodeB19.x2App[0].client.connectAddress "\"eNodeB18%x2ppp0\""
param *.eNodeB19.x2App[1].client.connectAddress "\"eNodeB35%x2ppp4\""
param *.eNodeB19.x2App[2].client.connectAddress "\"eNodeB48%x2ppp1\""
param *.eNodeB19.x2App[3].client.connectAddress "\"eNodeB40%x2ppp2\""
param *.eNodeB19.x2App[4].client.connectAddress "\"eNodeB58%x2ppp2\""
param *.eNodeB2.numX2Apps 6
param *.eNodeB2.x2App[0].client.connectAddress "\"eNodeB5%x2ppp0\""
param *.eNodeB2.x2App[1].client.connectAddress "\"eNodeB7%x2ppp0\""
param *.eNodeB2.x2App[2].client.connectAddress "\"eNodeB32%x2ppp0\""
param *.eNodeB2.x2App[3].client.connectAddress "\"eNodeB25%x2ppp0\""
param *.eNodeB2.x2App[4].client.connectAddress "\"eNodeB46%x2ppp0\""
param *.eNodeB2.x2App[5].client.connectAddress "\"eNodeB47%x2ppp0\""
param *.eNodeB20.numX2Apps 4
param *.eNodeB20.x2App[0].client.connectAddress "\"eNodeB4%x2ppp1\""
param *.eNodeB20.x2App[1].client.connectAddress "\"eNodeB17%x2ppp1\""
param *.eNodeB20.x2App[2].client.connectAddress "\"eNodeB49%x2ppp2\""
param *.eNodeB20.x2App[3].client.connectAddress "\"eNodeB55%x2ppp3\""
param *.eNodeB21.numX2Apps 3
param *.eNodeB21.x2App[0].client.connectAddress "\"eNodeB23%x2ppp0\""
param *.eNodeB21.x2App[1].client.connectAddress "\"eNodeB36%x2ppp0\""
param *.eNodeB21.x2App[2].client.connectAddress "\"eNodeB38%x2ppp1\""
param *.eNodeB22.numX2Apps 10
param *.eNodeB22.x2App[0].client.connectAddress "\"eNodeB1%x2ppp3\""
param *.eNodeB22.x2App[1].client.connectAddress "\"eNodeB11%x2ppp2\""
param *.eNodeB22.x2App[2].client.connectAddress "\"eNodeB14%x2ppp3\""
param *.eNodeB22.x2App[3].client.connectAddress "\"eNodeB54%x2ppp3\""
param *.eNodeB22.x2App[4].client.connectAddress "\"eNodeB37%x2ppp3\""
param *.eNodeB22.x2App[5].client.connectAddress "\"eNodeB40%x2ppp3\""
param *.eNodeB22.x2App[6].client.connectAddress "\"eNodeB41%x2ppp3\""
param *.eNodeB22.x2App[7].client.connectAddress "\"eNodeB43%x2ppp2\""
param *.eNodeB22.x2App[8].client.connectAddress "\"eNodeB50%x2ppp3\""
param *.eNodeB22.x2App[9].client.connectAddress "\"eNodeB66%x2ppp5\""
param *.eNodeB23.numX2Apps 4
param *.eNodeB23.x2App[0].client.connectAddress "\"eNodeB21%x2ppp0\""
param *.eNodeB23.x2App[1].client.connectAddress "\"eNodeB36%x2ppp1\""
param *.eNodeB23.x2App[2].client.connectAddress "\"eNodeB38%x2ppp2\""
param *.eNodeB23.x2App[3].client.connectAddress "\"eNodeB44%x2ppp1\""
param *.eNodeB24.numX2Apps 6
param *.eNodeB24.x2App[0].client.connectAddress "\"eNodeB15%x2ppp1\""
param *.eNodeB24.x2App[1].client.connectAddress "\"eNodeB59%x2ppp2\""
param *.eNodeB24.x2App[2].client.connectAddress "\"eNodeB60%x2ppp2\""
param *.eNodeB24.x2App[3].client.connectAddress "\"eNodeB65%x2ppp0\""
param *.eNodeB24.x2App[4].client.connectAddress "\"eNodeB28%x2ppp3\""
param *.eNodeB24.x2App[5].client.connectAddress "\"eNodeB39%x2ppp0\""
param *.eNodeB25.numX2Apps 6
param *.eNodeB25.x2App[0].client.connectAddress "\"eNodeB2%x2ppp2\""
param *.eNodeB25.x2App[1].client.connectAddress "\"eNodeB5%x2ppp2\""
param *.eNodeB25.x2App[2].client.connectAddress "\"eNodeB46%x2ppp3\""
param *.eNodeB25.x2App[3].client.connectAddress "\"eNodeB52%x2ppp1\""
param *.eNodeB25.x2App[4].client.connectAddress "\"eNodeB29%x2ppp1\""
param *.eNodeB25.x2App[5].client.connectAddress "\"eNodeB53%x2ppp3\""
param *.eNodeB26.numX2Apps 3
param *.eNodeB26.x2App[0].client.connectAddress "\"eNodeB39%x2ppp1\""
param *.eNodeB26.x2App[1].client.connectAddress "\"eNodeB59%x2ppp3\""
param *.eNodeB26.x2App[2].client.connectAddress "\"eNodeB61%x2ppp1\""
param *.eNodeB27.numX2Apps 9
param *.eNodeB27.x2App[0].client.connectAddress "\"eNodeB6%x2ppp2\""
param *.eNodeB27.x2App[1].client.connectAddress "\"eNodeB9%x2ppp1\""
param *.eNodeB27.x2App[2].client.connectAddress "\"eNodeB14%x2ppp4\""
param *.eNodeB27.x2App[3].client.connectAddress "\"eNodeB34%x2ppp3\""
param *.eNodeB27.x2App[4].client.connectAddress "\"eNodeB58%x2ppp3\""
param *.eNodeB27.x2App[5].client.connectAddress "\"eNodeB41%x2ppp4\""
param *.eNodeB27.x2App[6].client.connectAddress "\"eNodeB45%x2ppp3\""
param *.eNodeB27.x2App[7].client.connectAddress "\"eNodeB53%x2ppp4\""
param *.eNodeB27.x2App[8].client.connectAddress "\"eNodeB66%x2ppp6\""
param *.eNodeB28.numX2Apps 11
param *.eNodeB28.x2App[0].client.connectAddress "\"eNodeB10%x2ppp3\""
param *.eNodeB28.x2App[10].client.connectAddress "\"eNodeB65%x2ppp1\""
param *.eNodeB28.x2App[1].client.connectAddress "\"eNodeB13%x2ppp3\""
param *.eNodeB28.x2App[2].client.connectAddress "\"eNodeB15%x2ppp2\""
param *.eNodeB28.x2App[3].client.connectAddress "\"eNodeB24%x2ppp1\""
param *.eNodeB28.x2App[4].client.connectAddress "\"eNodeB60%x2ppp3\""
param *.eNodeB28.x2App[5].client.connectAddress "\"eNodeB64%x2ppp2\""
param *.eNodeB28.x2App[6].client.connectAddress "\"eNodeB31%x2ppp4\""
param *.eNodeB28.x2App[7].client.connectAddress "\"eNodeB57%x2ppp4\""
param *.eNodeB28.x2App[8].client.connectAddress "\"eNodeB59%x2ppp4\""
param *.eNodeB28.x2App[9].client.connectAddress "\"eNodeB63%x2ppp4\""
param *.eNodeB29.numX2Apps 8
param *.eNodeB29.x2App[0].client.connectAddress "\"eNodeB6%x2ppp3\""
param *.eNodeB29.x2App[1].client.connectAddress "\"eNodeB25%x2ppp2\""
param *.eNodeB29.x2App[2].client.connectAddress "\"eNodeB51%x2ppp1\""
param *.eNodeB29.x2App[3].client.connectAddress "\"eNodeB52%x2ppp2\""
param *.eNodeB29.x2App[4].client.connectAddress "\"eNodeB53%x2ppp5\""
param *.eNodeB29.x2App[5].client.connectAddress "\"eNodeB33%x2ppp1\""
param *.eNodeB29.x2App[6].client.connectAddress "\"eNodeB34%x2ppp4\""
param *.eNodeB29.x2App[7].client.connectAddress "\"eNodeB49%x2ppp3\""
param *.eNodeB3.numX2Apps 6
param *.eNodeB3.x2App[0].client.connectAddress "\"eNodeB12%x2ppp0\""
param *.eNodeB3.x2App[1].client.connectAddress "\"eNodeB46%x2ppp1\""
param *.eNodeB3.x2App[2].client.connectAddress "\"eNodeB62%x2ppp0\""
param *.eNodeB3.x2App[3].client.connectAddress "\"eNodeB30%x2ppp0\""
param *.eNodeB3.x2App[4].client.connectAddress "\"eNodeB32%x2ppp1\""
param *.eNodeB3.x2App[5].client.connectAddress "\"eNodeB55%x2ppp0\""
param *.eNodeB30.numX2Apps 7
param *.eNodeB30.x2App[0].client.connectAddress "\"eNodeB3%x2ppp1\""
param *.eNodeB30.x2App[1].client.connectAddress "\"eNodeB12%x2ppp1\""
param *.eNodeB30.x2App[2].client.connectAddress "\"eNodeB32%x2ppp3\""
param *.eNodeB30.x2App[3].client.connectAddress "\"eNodeB62%x2ppp2\""
param *.eNodeB30.x2App[4].client.connectAddress "\"eNodeB38%x2ppp3\""
param *.eNodeB30.x2App[5].client.connectAddress "\"eNodeB44%x2ppp2\""
param *.eNodeB30.x2App[6].client.connectAddress "\"eNodeB46%x2ppp4\""
param *.eNodeB31.numX2Apps 9
param *.eNodeB31.x2App[0].client.connectAddress "\"eNodeB7%x2ppp4\""
param *.eNodeB31.x2App[1].client.connectAddress "\"eNodeB8%x2ppp3\""
param *.eNodeB31.x2App[2].client.connectAddress "\"eNodeB10%x2ppp4\""
param *.eNodeB31.x2App[3].client.connectAddress "\"eNodeB13%x2ppp4\""
param *.eNodeB31.x2App[4].client.connectAddress "\"eNodeB28%x2ppp4\""
param *.eNodeB31.x2App[5].client.connectAddress "\"eNodeB63%x2ppp5\""
param *.eNodeB31.x2App[6].client.connectAddress "\"eNodeB35%x2ppp5\""
param *.eNodeB31.x2App[7].client.connectAddress "\"eNodeB47%x2ppp5\""
param *.eNodeB31.x2App[8].client.connectAddress "\"eNodeB57%x2ppp5\""
param *.eNodeB32.numX2Apps 7
param *.eNodeB32.x2App[0].client.connectAddress "\"eNodeB2%x2ppp3\""
param *.eNodeB32.x2App[1].client.connectAddress "\"eNodeB3%x2ppp2\""
param *.eNodeB32.x2App[2].client.connectAddress "\"eNodeB12%x2ppp2\""
param *.eNodeB32.x2App[3].client.connectAddress "\"eNodeB30%x2ppp2\""
param *.eNodeB32.x2App[4].client.connectAddress "\"eNodeB46%x2ppp5\""
param *.eNodeB32.x2App[5].client.connectAddress "\"eNodeB55%x2ppp4\""
param *.eNodeB32.x2App[6].client.connectAddress "\"eNodeB62%x2ppp3\""
param *.eNodeB33.numX2Apps 7
param *.eNodeB33.x2App[0].client.connectAddress "\"eNodeB6%x2ppp4\""
param *.eNodeB33.x2App[1].client.connectAddress "\"eNodeB29%x2ppp2\""
param *.eNodeB33.x2App[2].client.connectAddress "\"eNodeB45%x2ppp4\""
param *.eNodeB33.x2App[3].client.connectAddress "\"eNodeB51%x2ppp2\""
param *.eNodeB33.x2App[4].client.connectAddress "\"eNodeB37%x2ppp4\""
param *.eNodeB33.x2App[5].client.connectAddress "\"eNodeB42%x2ppp3\""
param *.eNodeB33.x2App[6].client.connectAddress "\"eNodeB53%x2ppp6\""
param *.eNodeB34.numX2Apps 9
param *.eNodeB34.x2App[0].client.connectAddress "\"eNodeB5%x2ppp3\""
param *.eNodeB34.x2App[1].client.connectAddress "\"eNodeB6%x2ppp5\""
param *.eNodeB34.x2App[2].client.connectAddress "\"eNodeB9%x2ppp2\""
param *.eNodeB34.x2App[3].client.connectAddress "\"eNodeB27%x2ppp3\""
param *.eNodeB34.x2App[4].client.connectAddress "\"eNodeB29%x2ppp3\""
param *.eNodeB34.x2App[5].client.connectAddress "\"eNodeB53%x2ppp7\""
param *.eNodeB34.x2App[6].client.connectAddress "\"eNodeB45%x2ppp5\""
param *.eNodeB34.x2App[7].client.connectAddress "\"eNodeB52%x2ppp3\""
param *.eNodeB34.x2App[8].client.connectAddress "\"eNodeB58%x2ppp4\""
param *.eNodeB35.numX2Apps 11
param *.eNodeB35.x2App[0].client.connectAddress "\"eNodeB8%x2ppp4\""
param *.eNodeB35.x2App[10].client.connectAddress "\"eNodeB58%x2ppp5\""
param *.eNodeB35.x2App[1].client.connectAddress "\"eNodeB9%x2ppp3\""
param *.eNodeB35.x2App[2].client.connectAddress "\"eNodeB10%x2ppp5\""
param *.eNodeB35.x2App[3].client.connectAddress "\"eNodeB13%x2ppp5\""
param *.eNodeB35.x2App[4].client.connectAddress "\"eNodeB19%x2ppp1\""
param *.eNodeB35.x2App[5].client.connectAddress "\"eNodeB31%x2ppp5\""
param *.eNodeB35.x2App[6].client.connectAddress "\"eNodeB63%x2ppp6\""
param *.eNodeB35.x2App[7].client.connectAddress "\"eNodeB47%x2ppp6\""
param *.eNodeB35.x2App[8].client.connectAddress "\"eNodeB48%x2ppp2\""
param *.eNodeB35.x2App[9].client.connectAddress "\"eNodeB57%x2ppp6\""
param *.eNodeB36.numX2Apps 4
param *.eNodeB36.x2App[0].client.connectAddress "\"eNodeB21%x2ppp1\""
param *.eNodeB36.x2App[1].client.connectAddress "\"eNodeB23%x2ppp1\""
param *.eNodeB36.x2App[2].client.connectAddress "\"eNodeB38%x2ppp4\""
param *.eNodeB36.x2App[3].client.connectAddress "\"eNodeB44%x2ppp3\""
param *.eNodeB37.numX2Apps 11
param *.eNodeB37.x2App[0].client.connectAddress "\"eNodeB1%x2ppp4\""
param *.eNodeB37.x2App[10].client.connectAddress "\"eNodeB66%x2ppp7\""
param *.eNodeB37.x2App[1].client.connectAddress "\"eNodeB6%x2ppp6\""
param *.eNodeB37.x2App[2].client.connectAddress "\"eNodeB14%x2ppp5\""
param *.eNodeB37.x2App[3].client.connectAddress "\"eNodeB22%x2ppp3\""
param *.eNodeB37.x2App[4].client.connectAddress "\"eNodeB33%x2ppp2\""
param *.eNodeB37.x2App[5].client.connectAddress "\"eNodeB42%x2ppp4\""
param *.eNodeB37.x2App[6].client.connectAddress "\"eNodeB45%x2ppp6\""
param *.eNodeB37.x2App[7].client.connectAddress "\"eNodeB41%x2ppp5\""
param *.eNodeB37.x2App[8].client.connectAddress "\"eNodeB43%x2ppp3\""
param *.eNodeB37.x2App[9].client.connectAddress "\"eNodeB50%x2ppp4\""
param *.eNodeB38.numX2Apps 7
param *.eNodeB38.x2App[0].client.connectAddress "\"eNodeB12%x2ppp3\""
param *.eNodeB38.x2App[1].client.connectAddress "\"eNodeB21%x2ppp2\""
param *.eNodeB38.x2App[2].client.connectAddress "\"eNodeB23%x2ppp2\""
param *.eNodeB38.x2App[3].client.connectAddress "\"eNodeB30%x2ppp3\""
param *.eNodeB38.x2App[4].client.connectAddress "\"eNodeB36%x2ppp2\""
param *.eNodeB38.x2App[5].client.connectAddress "\"eNodeB44%x2ppp4\""
param *.eNodeB38.x2App[6].client.connectAddress "\"eNodeB62%x2ppp4\""
param *.eNodeB39.numX2Apps 4
param *.eNodeB39.x2App[0].client.connectAddress "\"eNodeB26%x2ppp0\""
param *.eNodeB39.x2App[1].client.connectAddress "\"eNodeB24%x2ppp2\""
param *.eNodeB39.x2App[2].client.connectAddress "\"eNodeB59%x2ppp5\""
param *.eNodeB39.x2App[3].client.connectAddress "\"eNodeB61%x2ppp2\""
param *.eNodeB4.numX2Apps 4
param *.eNodeB4.x2App[0].client.connectAddress "\"eNodeB17%x2ppp0\""
param *.eNodeB4.x2App[1].client.connectAddress "\"eNodeB20%x2ppp0\""
param *.eNodeB4.x2App[2].client.connectAddress "\"eNodeB49%x2ppp0\""
param *.eNodeB4.x2App[3].client.connectAddress "\"eNodeB55%x2ppp1\""
param *.eNodeB40.numX2Apps 7
param *.eNodeB40.x2App[0].client.connectAddress "\"eNodeB11%x2ppp3\""
param *.eNodeB40.x2App[1].client.connectAddress "\"eNodeB18%x2ppp1\""
param *.eNodeB40.x2App[2].client.connectAddress "\"eNodeB19%x2ppp2\""
param *.eNodeB40.x2App[3].client.connectAddress "\"eNodeB22%x2ppp4\""
param *.eNodeB40.x2App[4].client.connectAddress "\"eNodeB54%x2ppp4\""
param *.eNodeB40.x2App[5].client.connectAddress "\"eNodeB48%x2ppp3\""
param *.eNodeB40.x2App[6].client.connectAddress "\"eNodeB66%x2ppp8\""
param *.eNodeB41.numX2Apps 13
param *.eNodeB41.x2App[0].client.connectAddress "\"eNodeB1%x2ppp5\""
param *.eNodeB41.x2App[10].client.connectAddress "\"eNodeB54%x2ppp5\""
param *.eNodeB41.x2App[11].client.connectAddress "\"eNodeB58%x2ppp6\""
param *.eNodeB41.x2App[12].client.connectAddress "\"eNodeB66%x2ppp9\""
param *.eNodeB41.x2App[1].client.connectAddress "\"eNodeB6%x2ppp7\""
param *.eNodeB41.x2App[2].client.connectAddress "\"eNodeB14%x2ppp6\""
param *.eNodeB41.x2App[3].client.connectAddress "\"eNodeB22%x2ppp5\""
param *.eNodeB41.x2App[4].client.connectAddress "\"eNodeB27%x2ppp4\""
param *.eNodeB41.x2App[5].client.connectAddress "\"eNodeB37%x2ppp5\""
param *.eNodeB41.x2App[6].client.connectAddress "\"eNodeB50%x2ppp5\""
param *.eNodeB41.x2App[7].client.connectAddress "\"eNodeB42%x2ppp5\""
param *.eNodeB41.x2App[8].client.connectAddress "\"eNodeB43%x2ppp4\""
param *.eNodeB41.x2App[9].client.connectAddress "\"eNodeB45%x2ppp7\""
param *.eNodeB42.numX2Apps 9
param *.eNodeB42.x2App[0].client.connectAddress "\"eNodeB1%x2ppp6\""
param *.eNodeB42.x2App[1].client.connectAddress "\"eNodeB6%x2ppp8\""
param *.eNodeB42.x2App[2].client.connectAddress "\"eNodeB14%x2ppp7\""
param *.eNodeB42.x2App[3].client.connectAddress "\"eNodeB33%x2ppp3\""
param *.eNodeB42.x2App[4].client.connectAddress "\"eNodeB37%x2ppp6\""
param *.eNodeB42.x2App[5].client.connectAddress "\"eNodeB41%x2ppp6\""
param *.eNodeB42.x2App[6].client.connectAddress "\"eNodeB50%x2ppp6\""
param *.eNodeB42.x2App[7].client.connectAddress "\"eNodeB43%x2ppp5\""
param *.eNodeB42.x2App[8].client.connectAddress "\"eNodeB45%x2ppp8\""
param *.eNodeB43.numX2Apps 9
param *.eNodeB43.x2App[0].client.connectAddress "\"eNodeB1%x2ppp7\""
param *.eNodeB43.x2App[1].client.connectAddress "\"eNodeB14%x2ppp8\""
param *.eNodeB43.x2App[2].client.connectAddress "\"eNodeB22%x2ppp6\""
param *.eNodeB43.x2App[3].client.connectAddress "\"eNodeB37%x2ppp7\""
param *.eNodeB43.x2App[4].client.connectAddress "\"eNodeB41%x2ppp7\""
param *.eNodeB43.x2App[5].client.connectAddress "\"eNodeB42%x2ppp6\""
param *.eNodeB43.x2App[6].client.connectAddress "\"eNodeB50%x2ppp7\""
param *.eNodeB43.x2App[7].client.connectAddress "\"eNodeB45%x2ppp9\""
param *.eNodeB43.x2App[8].client.connectAddress "\"eNodeB66%x2ppp10\""
param *.eNodeB44.numX2Apps 6
param *.eNodeB44.x2App[0].client.connectAddress "\"eNodeB12%x2ppp4\""
param *.eNodeB44.x2App[1].client.connectAddress "\"eNodeB23%x2ppp3\""
param *.eNodeB44.x2App[2].client.connectAddress "\"eNodeB30%x2ppp4\""
param *.eNodeB44.x2App[3].client.connectAddress "\"eNodeB36%x2ppp3\""
param *.eNodeB44.x2App[4].client.connectAddress "\"eNodeB38%x2ppp5\""
param *.eNodeB44.x2App[5].client.connectAddress "\"eNodeB62%x2ppp5\""
param *.eNodeB45.numX2Apps 13
param *.eNodeB45.x2App[0].client.connectAddress "\"eNodeB1%x2ppp8\""
param *.eNodeB45.x2App[10].client.connectAddress "\"eNodeB50%x2ppp8\""
param *.eNodeB45.x2App[11].client.connectAddress "\"eNodeB53%x2ppp8\""
param *.eNodeB45.x2App[12].client.connectAddress "\"eNodeB66%x2ppp11\""
param *.eNodeB45.x2App[1].client.connectAddress "\"eNodeB6%x2ppp9\""
param *.eNodeB45.x2App[2].client.connectAddress "\"eNodeB14%x2ppp9\""
param *.eNodeB45.x2App[3].client.connectAddress "\"eNodeB27%x2ppp5\""
param *.eNodeB45.x2App[4].client.connectAddress "\"eNodeB33%x2ppp4\""
param *.eNodeB45.x2App[5].client.connectAddress "\"eNodeB34%x2ppp5\""
param *.eNodeB45.x2App[6].client.connectAddress "\"eNodeB37%x2ppp8\""
param *.eNodeB45.x2App[7].client.connectAddress "\"eNodeB41%x2ppp8\""
param *.eNodeB45.x2App[8].client.connectAddress "\"eNodeB42%x2ppp7\""
param *.eNodeB45.x2App[9].client.connectAddress "\"eNodeB43%x2ppp6\""
param *.eNodeB46.numX2Apps 8
param *.eNodeB46.x2App[0].client.connectAddress "\"eNodeB2%x2ppp4\""
param *.eNodeB46.x2App[1].client.connectAddress "\"eNodeB3%x2ppp3\""
param *.eNodeB46.x2App[2].client.connectAddress "\"eNodeB12%x2ppp5\""
param *.eNodeB46.x2App[3].client.connectAddress "\"eNodeB25%x2ppp3\""
param *.eNodeB46.x2App[4].client.connectAddress "\"eNodeB30%x2ppp5\""
param *.eNodeB46.x2App[5].client.connectAddress "\"eNodeB32%x2ppp4\""
param *.eNodeB46.x2App[6].client.connectAddress "\"eNodeB55%x2ppp5\""
param *.eNodeB46.x2App[7].client.connectAddress "\"eNodeB62%x2ppp6\""
param *.eNodeB47.numX2Apps 9
param *.eNodeB47.x2App[0].client.connectAddress "\"eNodeB2%x2ppp5\""
param *.eNodeB47.x2App[1].client.connectAddress "\"eNodeB7%x2ppp5\""
param *.eNodeB47.x2App[2].client.connectAddress "\"eNodeB8%x2ppp5\""
param *.eNodeB47.x2App[3].client.connectAddress "\"eNodeB10%x2ppp6\""
param *.eNodeB47.x2App[4].client.connectAddress "\"eNodeB13%x2ppp6\""
param *.eNodeB47.x2App[5].client.connectAddress "\"eNodeB31%x2ppp6\""
param *.eNodeB47.x2App[6].client.connectAddress "\"eNodeB35%x2ppp6\""
param *.eNodeB47.x2App[7].client.connectAddress "\"eNodeB57%x2ppp7\""
param *.eNodeB47.x2App[8].client.connectAddress "\"eNodeB63%x2ppp7\""
param *.eNodeB48.numX2Apps 4
param *.eNodeB48.x2App[0].client.connectAddress "\"eNodeB18%x2ppp2\""
param *.eNodeB48.x2App[1].client.connectAddress "\"eNodeB19%x2ppp3\""
param *.eNodeB48.x2App[2].client.connectAddress "\"eNodeB35%x2ppp7\""
param *.eNodeB48.x2App[3].client.connectAddress "\"eNodeB40%x2ppp4\""
param *.eNodeB49.numX2Apps 7
param *.eNodeB49.x2App[0].client.connectAddress "\"eNodeB4%x2ppp2\""
param *.eNodeB49.x2App[1].client.connectAddress "\"eNodeB17%x2ppp2\""
param *.eNodeB49.x2App[2].client.connectAddress "\"eNodeB20%x2ppp2\""
param *.eNodeB49.x2App[3].client.connectAddress "\"eNodeB29%x2ppp4\""
param *.eNodeB49.x2App[4].client.connectAddress "\"eNodeB51%x2ppp3\""
param *.eNodeB49.x2App[5].client.connectAddress "\"eNodeB52%x2ppp4\""
param *.eNodeB49.x2App[6].client.connectAddress "\"eNodeB56%x2ppp1\""
param *.eNodeB5.numX2Apps 6
param *.eNodeB5.x2App[0].client.connectAddress "\"eNodeB2%x2ppp0\""
param *.eNodeB5.x2App[1].client.connectAddress "\"eNodeB25%x2ppp1\""
param *.eNodeB5.x2App[2].client.connectAddress "\"eNodeB34%x2ppp0\""
param *.eNodeB5.x2App[3].client.connectAddress "\"eNodeB9%x2ppp0\""
param *.eNodeB5.x2App[4].client.connectAddress "\"eNodeB52%x2ppp0\""
param *.eNodeB5.x2App[5].client.connectAddress "\"eNodeB53%x2ppp0\""
param *.eNodeB50.numX2Apps 10
param *.eNodeB50.x2App[0].client.connectAddress "\"eNodeB1%x2ppp9\""
param *.eNodeB50.x2App[1].client.connectAddress "\"eNodeB6%x2ppp10\""
param *.eNodeB50.x2App[2].client.connectAddress "\"eNodeB14%x2ppp10\""
param *.eNodeB50.x2App[3].client.connectAddress "\"eNodeB22%x2ppp7\""
param *.eNodeB50.x2App[4].client.connectAddress "\"eNodeB37%x2ppp9\""
param *.eNodeB50.x2App[5].client.connectAddress "\"eNodeB41%x2ppp9\""
param *.eNodeB50.x2App[6].client.connectAddress "\"eNodeB42%x2ppp8\""
param *.eNodeB50.x2App[7].client.connectAddress "\"eNodeB43%x2ppp7\""
param *.eNodeB50.x2App[8].client.connectAddress "\"eNodeB45%x2ppp10\""
param *.eNodeB50.x2App[9].client.connectAddress "\"eNodeB66%x2ppp12\""
param *.eNodeB51.numX2Apps 7
param *.eNodeB51.x2App[0].client.connectAddress "\"eNodeB6%x2ppp11\""
param *.eNodeB51.x2App[1].client.connectAddress "\"eNodeB29%x2ppp5\""
param *.eNodeB51.x2App[2].client.connectAddress "\"eNodeB33%x2ppp5\""
param *.eNodeB51.x2App[3].client.connectAddress "\"eNodeB49%x2ppp4\""
param *.eNodeB51.x2App[4].client.connectAddress "\"eNodeB52%x2ppp5\""
param *.eNodeB51.x2App[5].client.connectAddress "\"eNodeB53%x2ppp9\""
param *.eNodeB51.x2App[6].client.connectAddress "\"eNodeB56%x2ppp2\""
param *.eNodeB52.numX2Apps 7
param *.eNodeB52.x2App[0].client.connectAddress "\"eNodeB5%x2ppp4\""
param *.eNodeB52.x2App[1].client.connectAddress "\"eNodeB25%x2ppp4\""
param *.eNodeB52.x2App[2].client.connectAddress "\"eNodeB29%x2ppp6\""
param *.eNodeB52.x2App[3].client.connectAddress "\"eNodeB34%x2ppp6\""
param *.eNodeB52.x2App[4].client.connectAddress "\"eNodeB49%x2ppp5\""
param *.eNodeB52.x2App[5].client.connectAddress "\"eNodeB51%x2ppp4\""
param *.eNodeB52.x2App[6].client.connectAddress "\"eNodeB53%x2ppp10\""
param *.eNodeB53.numX2Apps 11
param *.eNodeB53.x2App[0].client.connectAddress "\"eNodeB5%x2ppp5\""
param *.eNodeB53.x2App[10].client.connectAddress "\"eNodeB52%x2ppp6\""
param *.eNodeB53.x2App[1].client.connectAddress "\"eNodeB6%x2ppp12\""
param *.eNodeB53.x2App[2].client.connectAddress "\"eNodeB9%x2ppp4\""
param *.eNodeB53.x2App[3].client.connectAddress "\"eNodeB25%x2ppp5\""
param *.eNodeB53.x2App[4].client.connectAddress "\"eNodeB27%x2ppp6\""
param *.eNodeB53.x2App[5].client.connectAddress "\"eNodeB29%x2ppp7\""
param *.eNodeB53.x2App[6].client.connectAddress "\"eNodeB33%x2ppp6\""
param *.eNodeB53.x2App[7].client.connectAddress "\"eNodeB34%x2ppp7\""
param *.eNodeB53.x2App[8].client.connectAddress "\"eNodeB45%x2ppp11\""
param *.eNodeB53.x2App[9].client.connectAddress "\"eNodeB51%x2ppp5\""
param *.eNodeB54.numX2Apps 7
param *.eNodeB54.x2App[0].client.connectAddress "\"eNodeB1%x2ppp10\""
param *.eNodeB54.x2App[1].client.connectAddress "\"eNodeB11%x2ppp4\""
param *.eNodeB54.x2App[2].client.connectAddress "\"eNodeB14%x2ppp11\""
param *.eNodeB54.x2App[3].client.connectAddress "\"eNodeB22%x2ppp8\""
param *.eNodeB54.x2App[4].client.connectAddress "\"eNodeB40%x2ppp5\""
param *.eNodeB54.x2App[5].client.connectAddress "\"eNodeB41%x2ppp10\""
param *.eNodeB54.x2App[6].client.connectAddress "\"eNodeB66%x2ppp13\""
param *.eNodeB55.numX2Apps 6
param *.eNodeB55.x2App[0].client.connectAddress "\"eNodeB3%x2ppp4\""
param *.eNodeB55.x2App[1].client.connectAddress "\"eNodeB4%x2ppp3\""
param *.eNodeB55.x2App[2].client.connectAddress "\"eNodeB12%x2ppp6\""
param *.eNodeB55.x2App[3].client.connectAddress "\"eNodeB20%x2ppp3\""
param *.eNodeB55.x2App[4].client.connectAddress "\"eNodeB32%x2ppp5\""
param *.eNodeB55.x2App[5].client.connectAddress "\"eNodeB46%x2ppp6\""
param *.eNodeB56.numX2Apps 3
param *.eNodeB56.x2App[0].client.connectAddress "\"eNodeB17%x2ppp3\""
param *.eNodeB56.x2App[1].client.connectAddress "\"eNodeB49%x2ppp6\""
param *.eNodeB56.x2App[2].client.connectAddress "\"eNodeB51%x2ppp6\""
param *.eNodeB57.numX2Apps 12
param *.eNodeB57.x2App[0].client.connectAddress "\"eNodeB7%x2ppp6\""
param *.eNodeB57.x2App[10].client.connectAddress "\"eNodeB64%x2ppp3\""
param *.eNodeB57.x2App[11].client.connectAddress "\"eNodeB65%x2ppp2\""
param *.eNodeB57.x2App[1].client.connectAddress "\"eNodeB8%x2ppp6\""
param *.eNodeB57.x2App[2].client.connectAddress "\"eNodeB10%x2ppp7\""
param *.eNodeB57.x2App[3].client.connectAddress "\"eNodeB13%x2ppp7\""
param *.eNodeB57.x2App[4].client.connectAddress "\"eNodeB28%x2ppp5\""
param *.eNodeB57.x2App[5].client.connectAddress "\"eNodeB31%x2ppp7\""
param *.eNodeB57.x2App[6].client.connectAddress "\"eNodeB35%x2ppp8\""
param *.eNodeB57.x2App[7].client.connectAddress "\"eNodeB47%x2ppp7\""
param *.eNodeB57.x2App[8].client.connectAddress "\"eNodeB63%x2ppp8\""
param *.eNodeB57.x2App[9].client.connectAddress "\"eNodeB60%x2ppp4\""
param *.eNodeB58.numX2Apps 8
param *.eNodeB58.x2App[0].client.connectAddress "\"eNodeB9%x2ppp5\""
param *.eNodeB58.x2App[1].client.connectAddress "\"eNodeB14%x2ppp12\""
param *.eNodeB58.x2App[2].client.connectAddress "\"eNodeB19%x2ppp4\""
param *.eNodeB58.x2App[3].client.connectAddress "\"eNodeB27%x2ppp7\""
param *.eNodeB58.x2App[4].client.connectAddress "\"eNodeB34%x2ppp8\""
param *.eNodeB58.x2App[5].client.connectAddress "\"eNodeB35%x2ppp9\""
param *.eNodeB58.x2App[6].client.connectAddress "\"eNodeB41%x2ppp11\""
param *.eNodeB58.x2App[7].client.connectAddress "\"eNodeB66%x2ppp14\""
param *.eNodeB59.numX2Apps 9
param *.eNodeB59.x2App[0].client.connectAddress "\"eNodeB15%x2ppp3\""
param *.eNodeB59.x2App[1].client.connectAddress "\"eNodeB16%x2ppp1\""
param *.eNodeB59.x2App[2].client.connectAddress "\"eNodeB24%x2ppp3\""
param *.eNodeB59.x2App[3].client.connectAddress "\"eNodeB26%x2ppp1\""
param *.eNodeB59.x2App[4].client.connectAddress "\"eNodeB28%x2ppp6\""
param *.eNodeB59.x2App[5].client.connectAddress "\"eNodeB39%x2ppp2\""
param *.eNodeB59.x2App[6].client.connectAddress "\"eNodeB60%x2ppp5\""
param *.eNodeB59.x2App[7].client.connectAddress "\"eNodeB65%x2ppp3\""
param *.eNodeB59.x2App[8].client.connectAddress "\"eNodeB61%x2ppp3\""
param *.eNodeB6.numX2Apps 14
param *.eNodeB6.x2App[0].client.connectAddress "\"eNodeB1%x2ppp0\""
param *.eNodeB6.x2App[10].client.connectAddress "\"eNodeB42%x2ppp1\""
param *.eNodeB6.x2App[11].client.connectAddress "\"eNodeB51%x2ppp0\""
param *.eNodeB6.x2App[12].client.connectAddress "\"eNodeB53%x2ppp1\""
param *.eNodeB6.x2App[13].client.connectAddress "\"eNodeB66%x2ppp1\""
param *.eNodeB6.x2App[1].client.connectAddress "\"eNodeB37%x2ppp1\""
param *.eNodeB6.x2App[2].client.connectAddress "\"eNodeB45%x2ppp1\""
param *.eNodeB6.x2App[3].client.connectAddress "\"eNodeB50%x2ppp1\""
param *.eNodeB6.x2App[4].client.connectAddress "\"eNodeB14%x2ppp1\""
param *.eNodeB6.x2App[5].client.connectAddress "\"eNodeB27%x2ppp0\""
param *.eNodeB6.x2App[6].client.connectAddress "\"eNodeB29%x2ppp0\""
param *.eNodeB6.x2App[7].client.connectAddress "\"eNodeB33%x2ppp0\""
param *.eNodeB6.x2App[8].client.connectAddress "\"eNodeB34%x2ppp1\""
param *.eNodeB6.x2App[9].client.connectAddress "\"eNodeB41%x2ppp1\""
param *.eNodeB60.numX2Apps 9
param *.eNodeB60.x2App[0].client.connectAddress "\"eNodeB10%x2ppp8\""
param *.eNodeB60.x2App[1].client.connectAddress "\"eNodeB15%x2ppp4\""
param *.eNodeB60.x2App[2].client.connectAddress "\"eNodeB24%x2ppp4\""
param *.eNodeB60.x2App[3].client.connectAddress "\"eNodeB28%x2ppp7\""
param *.eNodeB60.x2App[4].client.connectAddress "\"eNodeB57%x2ppp8\""
param *.eNodeB60.x2App[5].client.connectAddress "\"eNodeB59%x2ppp6\""
param *.eNodeB60.x2App[6].client.connectAddress "\"eNodeB65%x2ppp4\""
param *.eNodeB60.x2App[7].client.connectAddress "\"eNodeB63%x2ppp9\""
param *.eNodeB60.x2App[8].client.connectAddress "\"eNodeB64%x2ppp4\""
param *.eNodeB61.numX2Apps 4
param *.eNodeB61.x2App[0].client.connectAddress "\"eNodeB16%x2ppp2\""
param *.eNodeB61.x2App[1].client.connectAddress "\"eNodeB26%x2ppp2\""
param *.eNodeB61.x2App[2].client.connectAddress "\"eNodeB39%x2ppp3\""
param *.eNodeB61.x2App[3].client.connectAddress "\"eNodeB59%x2ppp7\""
param *.eNodeB62.numX2Apps 7
param *.eNodeB62.x2App[0].client.connectAddress "\"eNodeB3%x2ppp5\""
param *.eNodeB62.x2App[1].client.connectAddress "\"eNodeB12%x2ppp7\""
param *.eNodeB62.x2App[2].client.connectAddress "\"eNodeB30%x2ppp6\""
param *.eNodeB62.x2App[3].client.connectAddress "\"eNodeB32%x2ppp6\""
param *.eNodeB62.x2App[4].client.connectAddress "\"eNodeB38%x2ppp6\""
param *.eNodeB62.x2App[5].client.connectAddress "\"eNodeB44%x2ppp5\""
param *.eNodeB62.x2App[6].client.connectAddress "\"eNodeB46%x2ppp7\""
param *.eNodeB63.numX2Apps 10
param *.eNodeB63.x2App[0].client.connectAddress "\"eNodeB7%x2ppp7\""
param *.eNodeB63.x2App[1].client.connectAddress "\"eNodeB8%x2ppp7\""
param *.eNodeB63.x2App[2].client.connectAddress "\"eNodeB10%x2ppp9\""
param *.eNodeB63.x2App[3].client.connectAddress "\"eNodeB13%x2ppp8\""
param *.eNodeB63.x2App[4].client.connectAddress "\"eNodeB28%x2ppp8\""
param *.eNodeB63.x2App[5].client.connectAddress "\"eNodeB31%x2ppp8\""
param *.eNodeB63.x2App[6].client.connectAddress "\"eNodeB35%x2ppp10\""
param *.eNodeB63.x2App[7].client.connectAddress "\"eNodeB47%x2ppp8\""
param *.eNodeB63.x2App[8].client.connectAddress "\"eNodeB57%x2ppp9\""
param *.eNodeB63.x2App[9].client.connectAddress "\"eNodeB60%x2ppp6\""
param *.eNodeB64.numX2Apps 5
param *.eNodeB64.x2App[0].client.connectAddress "\"eNodeB10%x2ppp10\""
param *.eNodeB64.x2App[1].client.connectAddress "\"eNodeB15%x2ppp5\""
param *.eNodeB64.x2App[2].client.connectAddress "\"eNodeB28%x2ppp9\""
param *.eNodeB64.x2App[3].client.connectAddress "\"eNodeB57%x2ppp10\""
param *.eNodeB64.x2App[4].client.connectAddress "\"eNodeB60%x2ppp7\""
param *.eNodeB65.numX2Apps 5
param *.eNodeB65.x2App[0].client.connectAddress "\"eNodeB24%x2ppp5\""
param *.eNodeB65.x2App[1].client.connectAddress "\"eNodeB28%x2ppp10\""
param *.eNodeB65.x2App[2].client.connectAddress "\"eNodeB57%x2ppp11\""
param *.eNodeB65.x2App[3].client.connectAddress "\"eNodeB59%x2ppp8\""
param *.eNodeB65.x2App[4].client.connectAddress "\"eNodeB60%x2ppp8\""
param *.eNodeB66.numX2Apps 15
param *.eNodeB66.x2App[0].client.connectAddress "\"eNodeB1%x2ppp11\""
param *.eNodeB66.x2App[10].client.connectAddress "\"eNodeB43%x2ppp8\""
param *.eNodeB66.x2App[11].client.connectAddress "\"eNodeB45%x2ppp12\""
param *.eNodeB66.x2App[12].client.connectAddress "\"eNodeB50%x2ppp9\""
param *.eNodeB66.x2App[13].client.connectAddress "\"eNodeB54%x2ppp6\""
param *.eNodeB66.x2App[14].client.connectAddress "\"eNodeB58%x2ppp7\""
param *.eNodeB66.x2App[1].client.connectAddress "\"eNodeB6%x2ppp13\""
param *.eNodeB66.x2App[2].client.connectAddress "\"eNodeB9%x2ppp6\""
param *.eNodeB66.x2App[3].client.connectAddress "\"eNodeB11%x2ppp5\""
param *.eNodeB66.x2App[4].client.connectAddress "\"eNodeB14%x2ppp13\""
param *.eNodeB66.x2App[5].client.connectAddress "\"eNodeB22%x2ppp9\""
param *.eNodeB66.x2App[6].client.connectAddress "\"eNodeB27%x2ppp8\""
param *.eNodeB66.x2App[7].client.connectAddress "\"eNodeB37%x2ppp10\""
param *.eNodeB66.x2App[8].client.connectAddress "\"eNodeB40%x2ppp6\""
param *.eNodeB66.x2App[9].client.connectAddress "\"eNodeB41%x2ppp12\""
param *.eNodeB7.numX2Apps 8
param *.eNodeB7.x2App[0].client.connectAddress "\"eNodeB2%x2ppp1\""
param *.eNodeB7.x2App[1].client.connectAddress "\"eNodeB8%x2ppp0\""
param *.eNodeB7.x2App[2].client.connectAddress "\"eNodeB47%x2ppp1\""
param *.eNodeB7.x2App[3].client.connectAddress "\"eNodeB10%x2ppp0\""
param *.eNodeB7.x2App[4].client.connectAddress "\"eNodeB13%x2ppp0\""
param *.eNodeB7.x2App[5].client.connectAddress "\"eNodeB31%x2ppp0\""
param *.eNodeB7.x2App[6].client.connectAddress "\"eNodeB57%x2ppp0\""
param *.eNodeB7.x2App[7].client.connectAddress "\"eNodeB63%x2ppp0\""
param *.eNodeB8.numX2Apps 8
param *.eNodeB8.x2App[0].client.connectAddress "\"eNodeB7%x2ppp1\""
param *.eNodeB8.x2App[1].client.connectAddress "\"eNodeB13%x2ppp1\""
param *.eNodeB8.x2App[2].client.connectAddress "\"eNodeB31%x2ppp1\""
param *.eNodeB8.x2App[3].client.connectAddress "\"eNodeB47%x2ppp2\""
param *.eNodeB8.x2App[4].client.connectAddress "\"eNodeB10%x2ppp1\""
param *.eNodeB8.x2App[5].client.connectAddress "\"eNodeB35%x2ppp0\""
param *.eNodeB8.x2App[6].client.connectAddress "\"eNodeB57%x2ppp1\""
param *.eNodeB8.x2App[7].client.connectAddress "\"eNodeB63%x2ppp1\""
param *.eNodeB9.numX2Apps 7
param *.eNodeB9.x2App[0].client.connectAddress "\"eNodeB5%x2ppp1\""
param *.eNodeB9.x2App[1].client.connectAddress "\"eNodeB27%x2ppp1\""
param *.eNodeB9.x2App[2].client.connectAddress "\"eNodeB34%x2ppp2\""
param *.eNodeB9.x2App[3].client.connectAddress "\"eNodeB58%x2ppp0\""
param *.eNodeB9.x2App[4].client.connectAddress "\"eNodeB35%x2ppp1\""
param *.eNodeB9.x2App[5].client.connectAddress "\"eNodeB53%x2ppp2\""
param *.eNodeB9.x2App[6].client.connectAddress "\"eNodeB66%x2ppp2\""
param *.obstacles.debug false
param *.obstacles.obstacles "xmldoc(\"config.xml\", \"//AnalogueModel[@type='SimpleObstacleShadowing']/obstacles\")"
param *.playgroundSizeX 3000m
param *.playgroundSizeY 3000m
param *.playgroundSizeZ 50m
param *.server.numUdpApps 250
param *.server.udpApp[*].destAddress "\"car[\" + string(ancestorIndex(0)) + \"]\""
param *.server.udpApp[*].localPort "3000 + ancestorIndex(0)"
param *.server.udpApp[*].startingTime 0.05s
param *.server.udpApp[*].typename "\"VoIPSender\""
param *.veinsManager.launchConfig "xmldoc(\"erlangen.launchd.xml\")"
param *.veinsManager.moduleDisplayString "\"\""
param *.veinsManager.moduleName "\"car\""
param *.veinsManager.moduleType "\"lte.corenetwork.nodes.cars.Car\""
param *.veinsManager.updateInterval 0.1s

vector 8  ErlangenLTE.server.ppp[0].queue  queueLength:vector  ETV
attr interpolationmode  sample-hold
attr title  "queue length, vector"
vector 9  ErlangenLTE.server.ppp[0].ppp  txState:vector  ETV
attr interpolationmode  sample-hold
attr title  "tx state, vector"
vector 279  ErlangenLTE.router.ppp[0].queue  queueLength:vector  ETV
attr interpolationmode  sample-hold
attr title  "queue length, vector"
vector 280  ErlangenLTE.router.ppp[0].ppp  txState:vector  ETV
attr interpolationmode  sample-hold
attr title  "tx state, vector"
vector 290  ErlangenLTE.router.ppp[1].queue  queueLength:vector  ETV
attr interpolationmode  sample-hold
attr title  "queue length, vector"
vector 291  ErlangenLTE.router.ppp[1].ppp  txState:vector  ETV
attr interpolationmode  sample-hold
attr title  "tx state, vector"
vector 306  ErlangenLTE.pgw.ppp[0].queue  queueLength:vector  ETV
attr interpolationmode  sample-hold
attr title  "queue length, vector"
vector 307  ErlangenLTE.pgw.ppp[0].ppp  txState:vector  ETV
attr interpolationmode  sample-hold
attr title  "tx state, vector"
vector 317  ErlangenLTE.pgw.ppp[1].queue  queueLength:vector  ETV
attr interpolationmode  sample-hold
attr title  "queue length, vector"
vector 318  ErlangenLTE.pgw.ppp[1].ppp  txState:vector  ETV
attr interpolationmode  sample-hold
attr title  "tx state, vector"
vector 328  ErlangenLTE.pgw.ppp[2].queue  queueLength:vector  ETV
attr interpolationmode  sample-hold
attr title  "queue length, vector"
vector 329  ErlangenLTE.pgw.ppp[2].ppp  txState:vector  ETV
attr interpolationmode  sample-hold
attr title  "tx state, vector"
vector 339  ErlangenLTE.pgw.ppp[3].queue  queueLength:vector  ETV
attr interpolationmode  sample-hold
attr title  "queue length, vector"
vector 340  ErlangenLTE.pgw.ppp[3].ppp  txState:vector  ETV
attr interpolationmode  sample-hold
attr title  "tx state, vector"
vector 350  ErlangenLTE.pgw.ppp[4].queue  queueLength:vector  ETV
attr interpolationmode  sample-hold
attr title  "queue length, vector"
vector 351  ErlangenLTE.pgw.ppp[4].ppp  txState:vector  ETV
attr interpolationmode  sample-hold
attr title  "tx state, vector"
vector 361  ErlangenLTE.pgw.ppp[5].queue  queueLength:vector  ETV
attr interpolationmode  sample-hold
attr title  "queue length, vector"
vector 362  ErlangenLTE.pgw.ppp[5].ppp  txState:vector  ETV
attr interpolationmode  sample-hold
attr title  "tx state, vector"
vector 372  ErlangenLTE.pgw.ppp[6].queue  queueLength:vector  ETV
attr interpolationmode  sample-hold
attr title  "queue length, vector"
vector 373  ErlangenLTE.pgw.ppp[6].ppp  txState:vector  ETV
attr interpolationmode  sample-hold
attr title  "tx state, vector"
vector 383  ErlangenLTE.pgw.ppp[7].queue  queueLength:vector  ETV
attr interpolationmode  sample-hold
attr title  "queue length, vector"
vector 384  ErlangenLTE.pgw.ppp[7].ppp  txState:vector  ETV
attr interpolationmode  sample-hold
attr title  "tx state, vector"
vector 394  ErlangenLTE.pgw.ppp[8].queue  queueLength:vector  ETV
attr interpolationmode  sample-hold
attr title  "queue length, vector"
vector 395  ErlangenLTE.pgw.ppp[8].ppp  txState:vector  ETV
attr interpolationmode  sample-hold
attr title  "tx state, vector"
vector 405  ErlangenLTE.pgw.ppp[9].queue  queueLength:vector  ETV
attr interpolationmode  sample-hold
attr title  "queue length, vector"
vector 406  ErlangenLTE.pgw.ppp[9].ppp  txState:vector  ETV
attr interpolationmode  sample-hold
attr title  "tx state, vector"
vector 416  ErlangenLTE.pgw.ppp[10].queue  queueLength:vector  ETV
attr interpolationmode  sample-hold
attr title  "queue length, vector"
vector 417  ErlangenLTE.pgw.ppp[10].ppp  txState:vector  ETV
attr interpolationmode  sample-hold
attr title  "tx state, vector"
vector 427  ErlangenLTE.pgw.ppp[11].queue  queueLength:vector  ETV
attr interpolationmode  sample-hold
attr title  "queue length, vector"
vector 428  ErlangenLTE.pgw.ppp[11].ppp  txState:vector  ETV
attr interpolationmode  sample-hold
attr title  "tx state, vector"
vector 438  ErlangenLTE.pgw.ppp[12].queue  queueLength:vector  ETV
attr interpolationmode  sample-hold
attr title  "queue length, vector"
vector 439  ErlangenLTE.pgw.ppp[12].ppp  txState:vector  ETV
attr interpolationmode  sample-hold
attr title  "tx state, vector"
vector 449  ErlangenLTE.pgw.ppp[13].queue  queueLength:vector  ETV
attr interpolationmode  sample-hold
attr title  "queue length, vector"
vector 450  ErlangenLTE.pgw.ppp[13].ppp  txState:vector  ETV
attr interpolationmode  sample-hold
attr title  "tx state, vector"
vector 460  ErlangenLTE.pgw.ppp[14].queue  queueLength:vector  ETV
attr interpolationmode  sample-hold
attr title  "queue length, vector"
vector 461  ErlangenLTE.pgw.ppp[14].ppp  txState:vector  ETV
attr interpolationmode  sample-hold
attr title  "tx state, vector"
vector 471  ErlangenLTE.pgw.ppp[15].queue  queueLength:vector  ETV
attr interpolationmode  sample-hold
attr title  "queue length, vector"
vector 472  ErlangenLTE.pgw.ppp[15].ppp  txState:vector  ETV
attr interpolationmode  sample-hold
attr title  "tx state, vector"
vector 482  ErlangenLTE.pgw.ppp[16].queue  queueLength:vector  ETV
attr interpolationmode  sample-hold
attr title  "queue length, vector"
vector 483  ErlangenLTE.pgw.ppp[16].ppp  txState:vector  ETV
attr interpolationmode  sample-hold
attr title  "tx state, vector"
vector 493  ErlangenLTE.pgw.ppp[17].queue  queueLength:vector  ETV
attr interpolationmode  sample-hold
attr title  "queue length, vector"
vector 494  ErlangenLTE.pgw.ppp[17].ppp  txState:vector  ETV
attr interpolationmode  sample-hold
attr title  "tx state, vector"
vector 504  ErlangenLTE.pgw.ppp[18].queue  queueLength:vector  ETV
attr interpolationmode  sample-hold
attr title  "queue length, vector"
vector 505  ErlangenLTE.pgw.ppp[18].ppp  txState:vector  ETV
attr interpolationmode  sample-hold
attr title  "tx state, vector"
vector 515  ErlangenLTE.pgw.ppp[19].queue  queueLength:vector  ETV
attr interpolationmode  sample-hold
attr title  "queue length, vector"
vector 516  ErlangenLTE.pgw.ppp[19].ppp  txState:vector  ETV
attr interpolationmode  sample-hold
attr title  "tx state, vector"
vector 526  ErlangenLTE.pgw.ppp[20].queue  queueLength:vector  ETV
attr interpolationmode  sample-hold
attr title  "queue length, vector"
vector 527  ErlangenLTE.pgw.ppp[20].ppp  txState:vector  ETV
attr interpolationmode  sample-hold
attr title  "tx state, vector"
vector 537  ErlangenLTE.pgw.ppp[21].queue  queueLength:vector  ETV
attr interpolationmode  sample-hold
attr title  "queue length, vector"
vector 538  ErlangenLTE.pgw.ppp[21].ppp  txState:vector  ETV
attr interpolationmode  sample-hold
attr title  "tx state, vector"
vector 548  ErlangenLTE.pgw.ppp[22].queue  queueLength:vector  ETV
attr interpolationmode  sample-hold
attr title  "queue length, vector"
vector 549  ErlangenLTE.pgw.ppp[22].ppp  txState:vector  ETV
attr interpolationmode  sample-hold
attr title  "tx state, vector"
vector 559  ErlangenLTE.pgw.ppp[23].queue  queueLength:vector  ETV
attr interpolationmode  sample-hold
attr title  "queue length, vector"
vector 560  ErlangenLTE.pgw.ppp[23].ppp  txState:vector  ETV
attr interpolationmode  sample-hold
attr title  "tx state, vector"
vector 570  ErlangenLTE.pgw.ppp[24].queue  queueLength:vector  ETV
attr interpolationmode  sample-hold
attr title  "queue length, vector"
vector 571  ErlangenLTE.pgw.ppp[24].ppp  txState:vector  ETV
attr interpolationmode  sample-hold
attr title  "tx state, vector"
vector 581  ErlangenLTE.pgw.ppp[25].queue  queueLength:vector  ETV
attr interpolationmode  sample-hold
attr title  "queue length, vector"
vector 582  ErlangenLTE.pgw.ppp[25].ppp  txState:vector  ETV
attr interpolationmode  sample-hold
attr title  "tx state, vector"
vector 592  ErlangenLTE.pgw.ppp[26].queue  queueLength:vector  ETV
attr interpolationmode  sample-hold
attr title  "queue length, vector"
vector 593  ErlangenLTE.pgw.ppp[26].ppp  txState:vector  ETV
attr interpolationmode  sample-hold
attr title  "tx state, vector"
vector 603  ErlangenLTE.pgw.ppp[27].queue  queueLength:vector  ETV
attr interpolationmode  sample-hold
attr title  "queue length, vector"
vector 604  ErlangenLTE.pgw.ppp[27].ppp  txState:vector  ETV
attr interpolationmode  sample-hold
attr title  "tx state, vector"
vector 614  ErlangenLTE.pgw.ppp[28].queue  queueLength:vector  ETV
attr interpolationmode  sample-hold
attr title  "queue length, vector"
vector 615  ErlangenLTE.pgw.ppp[28].ppp  txState:vector  ETV
attr interpolationmode  sample-hold
attr title  "tx state, vector"
vector 625  ErlangenLTE.pgw.ppp[29].queue  queueLength:vector  ETV
attr interpolationmode  sample-hold
attr title  "queue length, vector"
vector 626  ErlangenLTE.pgw.ppp[29].ppp  txState:vector  ETV
attr interpolationmode  sample-hold
attr title  "tx state, vector"
vector 636  ErlangenLTE.pgw.ppp[30].queue  queueLength:vector  ETV
attr interpolationmode  sample-hold
attr title  "queue length, vector"
vector 637  ErlangenLTE.pgw.ppp[30].ppp  txState:vector  ETV
attr interpolationmode  sample-hold
attr title  "tx state, vector"
vector 647  ErlangenLTE.pgw.ppp[31].queue  queueLength:vector  ETV
attr interpolationmode  sample-hold
attr title  "queue length, vector"
vector 648  ErlangenLTE.pgw.ppp[31].ppp  txState:vector  ETV
attr interpolationmode  sample-hold
attr title  "tx state, vector"
vector 658  ErlangenLTE.pgw.ppp[32].queue  queueLength:vector  ETV
attr interpolationmode  sample-hold
attr title  "queue length, vector"
vector 659  ErlangenLTE.pgw.ppp[32].ppp  txState:vector  ETV
attr interpolationmode  sample-hold
attr title  "tx state, vector"
vector 669  ErlangenLTE.pgw.ppp[33].queue  queueLength:vector  ETV
attr interpolationmode  sample-hold
attr title  "queue length, vector"
vector 670  ErlangenLTE.pgw.ppp[33].ppp  txState:vector  ETV
attr interpolationmode  sample-hold
attr title  "tx state, vector"
vector 680  ErlangenLTE.pgw.ppp[34].queue  queueLength:vector  ETV
attr interpolationmode  sample-hold
attr title  "queue length, vector"
vector 681  ErlangenLTE.pgw.ppp[34].ppp  txState:vector  ETV
attr interpolationmode  sample-hold
attr title  "tx state, vector"
vector 691  ErlangenLTE.pgw.ppp[35].queue  queueLength:vector  ETV
attr interpolationmode  sample-hold
attr title  "queue length, vector"
vector 692  ErlangenLTE.pgw.ppp[35].ppp  txState:vector  ETV
attr interpolationmode  sample-hold
attr title  "tx state, vector"
vector 702  ErlangenLTE.pgw.ppp[36].queue  queueLength:vector  ETV
attr interpolationmode  sample-hold
attr title  "queue length, vector"
vector 703  ErlangenLTE.pgw.ppp[36].ppp  txState:vector  ETV
attr interpolationmode  sample-hold
attr title  "tx state, vector"
vector 713  ErlangenLTE.pgw.ppp[37].queue  queueLength:vector  ETV
attr interpolationmode  sample-hold
attr title  "queue length, vector"
vector 714  ErlangenLTE.pgw.ppp[37].ppp  txState:vector  ETV
attr interpolationmode  sample-hold
attr title  "tx state, vector"
vector 724  ErlangenLTE.pgw.ppp[38].queue  queueLength:vector  ETV
attr interpolationmode  sample-hold
attr title  "queue length, vector"
vector 725  ErlangenLTE.pgw.ppp[38].ppp  txState:vector  ETV
attr interpolationmode  sample-hold
attr title  "tx state, vector"
vector 735  ErlangenLTE.pgw.ppp[39].queue  queueLength:vector  ETV
attr interpolationmode  sample-hold
attr title  "queue length, vector"
vector 736  ErlangenLTE.pgw.ppp[39].ppp  txState:vector  ETV
attr interpolationmode  sample-hold
attr title  "tx state, vector"
vector 746  ErlangenLTE.pgw.ppp[40].queue  queueLength:vector  ETV
attr interpolationmode  sample-hold
attr title  "queue length, vector"
vector 747  ErlangenLTE.pgw.ppp[40].ppp  txState:vector  ETV
attr interpolationmode  sample-hold
attr title  "tx state, vector"
vector 757  ErlangenLTE.pgw.ppp[41].queue  queueLength:vector  ETV
attr interpolationmode  sample-hold
attr title  "queue length, vector"
vector 758  ErlangenLTE.pgw.ppp[41].ppp  txState:vector  ETV
attr interpolationmode  sample-hold
attr title  "tx state, vector"
vector 768  ErlangenLTE.pgw.ppp[42].queue  queueLength:vector  ETV
attr interpolationmode  sample-hold
attr title  "queue length, vector"
vector 769  ErlangenLTE.pgw.ppp[42].ppp  txState:vector  ETV
attr interpolationmode  sample-hold
attr title  "tx state, vector"
vector 779  ErlangenLTE.pgw.ppp[43].queue  queueLength:vector  ETV
attr interpolationmode  sample-hold
attr title  "queue length, vector"
vector 780  ErlangenLTE.pgw.ppp[43].ppp  txState:vector  ETV
attr interpolationmode  sample-hold
attr title  "tx state, vector"
vector 790  ErlangenLTE.pgw.ppp[44].queue  queueLength:vector  ETV
attr interpolationmode  sample-hold
attr title  "queue length, vector"
vector 791  ErlangenLTE.pgw.ppp[44].ppp  txState:vector  ETV
attr interpolationmode  sample-hold
attr title  "tx state, vector"
vector 801  ErlangenLTE.pgw.ppp[45].queue  queueLength:vector  ETV
attr interpolationmode  sample-hold
attr title  "queue length, vector"
vector 802  ErlangenLTE.pgw.ppp[45].ppp  txState:vector  ETV
attr interpolationmode  sample-hold
attr title  "tx state, vector"
vector 812  ErlangenLTE.pgw.ppp[46].queue  queueLength:vector  ETV
attr interpolationmode  sample-hold
attr title  "queue length, vector"
vector 813  ErlangenLTE.pgw.ppp[46].ppp  txState:vector  ETV
attr interpolationmode  sample-hold
attr title  "tx state, vector"
vector 823  ErlangenLTE.pgw.ppp[47].queue  queueLength:vector  ETV
attr interpolationmode  sample-hold
attr title  "queue length, vector"
vector 824  ErlangenLTE.pgw.ppp[47].ppp  txState:vector  ETV
attr interpolationmode  sample-hold
attr title  "tx state, vector"
vector 834  ErlangenLTE.pgw.ppp[48].queue  queueLength:vector  ETV
attr interpolationmode  sample-hold
attr title  "queue length, vector"
vector 835  ErlangenLTE.pgw.ppp[48].ppp  txState:vector  ETV
attr interpolationmode  sample-hold
attr title  "tx state, vector"
vector 845  ErlangenLTE.pgw.ppp[49].queue  queueLength:vector  ETV
attr interpolationmode  sample-hold
attr title  "queue length, vector"
vector 846  ErlangenLTE.pgw.ppp[49].ppp  txState:vector  ETV
attr interpolationmode  sample-hold
attr title  "tx state, vector"
vector 856  ErlangenLTE.pgw.ppp[50].queue  queueLength:vector  ETV
attr interpolationmode  sample-hold
attr title  "queue length, vector"
vector 857  ErlangenLTE.pgw.ppp[50].ppp  txState:vector  ETV
attr interpolationmode  sample-hold
attr title  "tx state, vector"
vector 867  ErlangenLTE.pgw.ppp[51].queue  queueLength:vector  ETV
attr interpolationmode  sample-hold
attr title  "queue length, vector"
vector 868  ErlangenLTE.pgw.ppp[51].ppp  txState:vector  ETV
attr interpolationmode  sample-hold
attr title  "tx state, vector"
vector 878  ErlangenLTE.pgw.ppp[52].queue  queueLength:vector  ETV
attr interpolationmode  sample-hold
attr title  "queue length, vector"
vector 879  ErlangenLTE.pgw.ppp[52].ppp  txState:vector  ETV
attr interpolationmode  sample-hold
attr title  "tx state, vector"
vector 889  ErlangenLTE.pgw.ppp[53].queue  queueLength:vector  ETV
attr interpolationmode  sample-hold
attr title  "queue length, vector"
vector 890  ErlangenLTE.pgw.ppp[53].ppp  txState:vector  ETV
attr interpolationmode  sample-hold
attr title  "tx state, vector"
vector 900  ErlangenLTE.pgw.ppp[54].queue  queueLength:vector  ETV
attr interpolationmode  sample-hold
attr title  "queue length, vector"
vector 901  ErlangenLTE.pgw.ppp[54].ppp  txState:vector  ETV
attr interpolationmode  sample-hold
attr title  "tx state, vector"
vector 911  ErlangenLTE.pgw.ppp[55].queue  queueLength:vector  ETV
attr interpolationmode  sample-hold
attr title  "queue length, vector"
vector 912  ErlangenLTE.pgw.ppp[55].ppp  txState:vector  ETV
attr interpolationmode  sample-hold
attr title  "tx state, vector"
vector 922  ErlangenLTE.pgw.ppp[56].queue  queueLength:vector  ETV
attr interpolationmode  sample-hold
attr title  "queue length, vector"
vector 923  ErlangenLTE.pgw.ppp[56].ppp  txState:vector  ETV
attr interpolationmode  sample-hold
attr title  "tx state, vector"
vector 933  ErlangenLTE.pgw.ppp[57].queue  queueLength:vector  ETV
attr interpolationmode  sample-hold
attr title  "queue length, vector"
vector 934  ErlangenLTE.pgw.ppp[57].ppp  txState:vector  ETV
attr interpolationmode  sample-hold
attr title  "tx state, vector"
vector 944  ErlangenLTE.pgw.ppp[58].queue  queueLength:vector  ETV
attr interpolationmode  sample-hold
attr title  "queue length, vector"
vector 945  ErlangenLTE.pgw.ppp[58].ppp  txState:vector  ETV
attr interpolationmode  sample-hold
attr title  "tx state, vector"
vector 955  ErlangenLTE.pgw.ppp[59].queue  queueLength:vector  ETV
attr interpolationmode  sample-hold
attr title  "queue length, vector"
vector 956  ErlangenLTE.pgw.ppp[59].ppp  txState:vector  ETV
attr interpolationmode  sample-hold
attr title  "tx state, vector"
vector 966  ErlangenLTE.pgw.ppp[60].queue  queueLength:vector  ETV
attr interpolationmode  sample-hold
attr title  "queue length, vector"
vector 967  ErlangenLTE.pgw.ppp[60].ppp  txState:vector  ETV
attr interpolationmode  sample-hold
attr title  "tx state, vector"
vector 977  ErlangenLTE.pgw.ppp[61].queue  queueLength:vector  ETV
attr interpolationmode  sample-hold
attr title  "queue length, vector"
vector 978  ErlangenLTE.pgw.ppp[61].ppp  txState:vector  ETV
attr interpolationmode  sample-hold
attr title  "tx state, vector"
vector 988  ErlangenLTE.pgw.ppp[62].queue  queueLength:vector  ETV
attr interpolationmode  sample-hold
attr title  "queue length, vector"
vector 989  ErlangenLTE.pgw.ppp[62].ppp  txState:vector  ETV
attr interpolationmode  sample-hold
attr title  "tx state, vector"
vector 999  ErlangenLTE.pgw.ppp[63].queue  queueLength:vector  ETV
attr interpolationmode  sample-hold
attr title  "queue length, vector"
vector 1000  ErlangenLTE.pgw.ppp[63].ppp  txState:vector  ETV
attr interpolationmode  sample-hold
attr title  "tx state, vector"
vector 1010  ErlangenLTE.pgw.ppp[64].queue  queueLength:vector  ETV
attr interpolationmode  sample-hold
attr title  "queue length, vector"
vector 1011  ErlangenLTE.pgw.ppp[64].ppp  txState:vector  ETV
attr interpolationmode  sample-hold
attr title  "tx state, vector"
vector 1021  ErlangenLTE.pgw.ppp[65].queue  queueLength:vector  ETV
attr interpolationmode  sample-hold
attr title  "queue length, vector"
vector 1022  ErlangenLTE.pgw.ppp[65].ppp  txState:vector  ETV
attr interpolationmode  sample-hold
attr title  "tx state, vector"
vector 1032  ErlangenLTE.pgw.pppInterface.queue  queueLength:vector  ETV
attr interpolationmode  sample-hold
attr title  "queue length, vector"
vector 1033  ErlangenLTE.pgw.pppInterface.ppp  txState:vector  ETV
attr interpolationmode  sample-hold
attr title  "tx state, vector"
vector 1075  ErlangenLTE.eNodeB1.pppIf.queue  queueLength:vector  ETV
attr interpolationmode  sample-hold
attr title  "queue length, vector"
vector 1076  ErlangenLTE.eNodeB1.pppIf.ppp  txState:vector  ETV
attr interpolationmode  sample-hold
attr title  "tx state, vector"
vector 1086  ErlangenLTE.eNodeB1.x2ppp[0].queue  queueLength:vector  ETV
attr interpolationmode  sample-hold
attr title  "queue length, vector"
vector 1087  ErlangenLTE.eNodeB1.x2ppp[0].ppp  txState:vector  ETV
attr interpolationmode  sample-hold
attr title  "tx state, vector"
vector 1097  ErlangenLTE.eNodeB1.x2ppp[1].queue  queueLength:vector  ETV
attr interpolationmode  sample-hold
attr title  "queue length, vector"
vector 1098  ErlangenLTE.eNodeB1.x2ppp[1].ppp  txState:vector  ETV
attr interpolationmode  sample-hold
attr title  "tx state, vector"
vector 1108  ErlangenLTE.eNodeB1.x2ppp[2].queue  queueLength:vector  ETV
attr interpolationmode  sample-hold
attr title  "queue length, vector"
vector 1109  ErlangenLTE.eNodeB1.x2ppp[2].ppp  txState:vector  ETV
attr interpolationmode  sample-hold
attr title  "tx state, vector"
vector 1119  ErlangenLTE.eNodeB1.x2ppp[3].queue  queueLength:vector  ETV
attr interpolationmode  sample-hold
attr title  "queue length, vector"
vector 1120  ErlangenLTE.eNodeB1.x2ppp[3].ppp  txState:vector  ETV
attr interpolationmode  sample-hold
attr title  "tx state, vector"
vector 1130  ErlangenLTE.eNodeB1.x2ppp[4].queue  queueLength:vector  ETV
attr interpolationmode  sample-hold
attr title  "queue length, vector"
vector 1131  ErlangenLTE.eNodeB1.x2ppp[4].ppp  txState:vector  ETV
attr interpolationmode  sample-hold
attr title  "tx state, vector"
vector 1141  ErlangenLTE.eNodeB1.x2ppp[5].queue  queueLength:vector  ETV
attr interpolationmode  sample-hold
attr title  "queue length, vector"
vector 1142  ErlangenLTE.eNodeB1.x2ppp[5].ppp  txState:vector  ETV
attr interpolationmode  sample-hold
attr title  "tx state, vector"
vector 1152  ErlangenLTE.eNodeB1.x2ppp[6].queue  queueLength:vector  ETV
attr interpolationmode  sample-hold
attr title  "queue length, vector"
vector 1153  ErlangenLTE.eNodeB1.x2ppp[6].ppp  txState:vector  ETV
attr interpolationmode  sample-hold
attr title  "tx state, vector"
vector 1163  ErlangenLTE.eNodeB1.x2ppp[7].queue  queueLength:vector  ETV
attr interpolationmode  sample-hold
attr title  "queue length, vector"
vector 1164  ErlangenLTE.eNodeB1.x2ppp[7].ppp  txState:vector  ETV
attr interpolationmode  sample-hold
attr title  "tx state, vector"
vector 1174  ErlangenLTE.eNodeB1.x2ppp[8].queue  queueLength:vector  ETV
attr interpolationmode  sample-hold
attr title  "queue length, vector"
vector 1175  ErlangenLTE.eNodeB1.x2ppp[8].ppp  txState:vector  ETV
attr interpolationmode  sample-hold
attr title  "tx state, vector"
vector 1185  ErlangenLTE.eNodeB1.x2ppp[9].queue  queueLength:vector  ETV
attr interpolationmode  sample-hold
attr title  "queue length, vector"
vector 1186  ErlangenLTE.eNodeB1.x2ppp[9].ppp  txState:vector  ETV
attr interpolationmode  sample-hold
attr title  "tx state, vector"
vector 1196  ErlangenLTE.eNodeB1.x2ppp[10].queue  queueLength:vector  ETV
attr interpolationmode  sample-hold
attr title  "queue length, vector"
vector 1197  ErlangenLTE.eNodeB1.x2ppp[10].ppp  txState:vector  ETV
attr interpolationmode  sample-hold
attr title  "tx state, vector"
vector 1207  ErlangenLTE.eNodeB1.x2ppp[11].queue  queueLength:vector  ETV
attr interpolationmode  sample-hold
attr title  "queue length, vector"
vector 1208  ErlangenLTE.eNodeB1.x2ppp[11].ppp  txState:vector  ETV
attr interpolationmode  sample-hold
attr title  "tx state, vector"
vector 1288  ErlangenLTE.eNodeB2.pppIf.queue  queueLength:vector  ETV
attr interpolationmode  sample-hold
attr title  "queue length, vector"
vector 1289  ErlangenLTE.eNodeB2.pppIf.ppp  txState:vector  ETV
attr interpolationmode  sample-hold
attr title  "tx state, vector"
vector 1299  ErlangenLTE.eNodeB2.x2ppp[0].queue  queueLength:vector  ETV
attr interpolationmode  sample-hold
attr title  "queue length, vector"
vector 1300  ErlangenLTE.eNodeB2.x2ppp[0].ppp  txState:vector  ETV
attr interpolationmode  sample-hold
attr title  "tx state, vector"
vector 1310  ErlangenLTE.eNodeB2.x2ppp[1].queue  queueLength:vector  ETV
attr interpolationmode  sample-hold
attr title  "queue length, vector"
vector 1311  ErlangenLTE.eNodeB2.x2ppp[1].ppp  txState:vector  ETV
attr interpolationmode  sample-hold
attr title  "tx state, vector"
vector 1321  ErlangenLTE.eNodeB2.x2ppp[2].queue  queueLength:vector  ETV
attr interpolationmode  sample-hold
attr title  "queue length, vector"
vector 1322  ErlangenLTE.eNodeB2.x2ppp[2].ppp  txState:vector  ETV
attr interpolationmode  sample-hold
attr title  "tx state, vector"
vector 1332  ErlangenLTE.eNodeB2.x2ppp[3].queue  queueLength:vector  ETV
attr interpolationmode  sample-hold
attr title  "queue length, vector"
vector 1333  ErlangenLTE.eNodeB2.x2ppp[3].ppp  txState:vector  ETV
attr interpolationmode  sample-hold
attr title  "tx state, vector"
vector 1343  ErlangenLTE.eNodeB2.x2ppp[4].queue  queueLength:vector  ETV
attr interpolationmode  sample-hold
attr title  "queue length, vector"
vector 1344  ErlangenLTE.eNodeB2.x2ppp[4].ppp  txState:vector  ETV
attr interpolationmode  sample-hold
attr title  "tx state, vector"
vector 1354  ErlangenLTE.eNodeB2.x2ppp[5].queue  queueLength:vector  ETV
attr interpolationmode  sample-hold
attr title  "queue length, vector"
vector 1355  ErlangenLTE.eNodeB2.x2ppp[5].ppp  txState:vector  ETV
attr interpolationmode  sample-hold
attr title  "tx state, vector"
vector 1417  ErlangenLTE.eNodeB3.pppIf.queue  queueLength:vector  ETV
attr interpolationmode  sample-hold
attr title  "queue length, vector"
vector 1418  ErlangenLTE.eNodeB3.pppIf.ppp  txState:vector  ETV
attr interpolationmode  sample-hold
attr title  "tx state, vector"
vector 1428  ErlangenLTE.eNodeB3.x2ppp[0].queue  queueLength:vector  ETV
attr interpolationmode  sample-hold
attr title  "queue length, vector"
vector 1429  ErlangenLTE.eNodeB3.x2ppp[0].ppp  txState:vector  ETV
attr interpolationmode  sample-hold
attr title  "tx state, vector"
vector 1439  ErlangenLTE.eNodeB3.x2ppp[1].queue  queueLength:vector  ETV
attr interpolationmode  sample-hold
attr title  "queue length, vector"
vector 1440  ErlangenLTE.eNodeB3.x2ppp[1].ppp  txState:vector  ETV
attr interpolationmode  sample-hold
attr title  "tx state, vector"
vector 1450  ErlangenLTE.eNodeB3.x2ppp[2].queue  queueLength:vector  ETV
attr interpolationmode  sample-hold
attr title  "queue length, vector"
vector 1451  ErlangenLTE.eNodeB3.x2ppp[2].ppp  txState:vector  ETV
attr interpolationmode  sample-hold
attr title  "tx state, vector"
vector 1461  ErlangenLTE.eNodeB3.x2ppp[3].queue  queueLength:vector  ETV
attr interpolationmode  sample-hold
attr title  "queue length, vector"
vector 1462  ErlangenLTE.eNodeB3.x2ppp[3].ppp  txState:vector  ETV
attr interpolationmode  sample-hold
attr title  "tx state, vector"
vector 1472  ErlangenLTE.eNodeB3.x2ppp[4].queue  queueLength:vector  ETV
attr interpolationmode  sample-hold
attr title  "queue length, vector"
vector 1473  ErlangenLTE.eNodeB3.x2ppp[4].ppp  txState:vector  ETV
attr interpolationmode  sample-hold
attr title  "tx state, vector"
vector 1483  ErlangenLTE.eNodeB3.x2ppp[5].queue  queueLength:vector  ETV
attr interpolationmode  sample-hold
attr title  "queue length, vector"
vector 1484  ErlangenLTE.eNodeB3.x2ppp[5].ppp  txState:vector  ETV
attr interpolationmode  sample-hold
attr title  "tx state, vector"
vector 1546  ErlangenLTE.eNodeB4.pppIf.queue  queueLength:vector  ETV
attr interpolationmode  sample-hold
attr title  "queue length, vector"
vector 1547  ErlangenLTE.eNodeB4.pppIf.ppp  txState:vector  ETV
attr interpolationmode  sample-hold
attr title  "tx state, vector"
vector 1557  ErlangenLTE.eNodeB4.x2ppp[0].queue  queueLength:vector  ETV
attr interpolationmode  sample-hold
attr title  "queue length, vector"
vector 1558  ErlangenLTE.eNodeB4.x2ppp[0].ppp  txState:vector  ETV
attr interpolationmode  sample-hold
attr title  "tx state, vector"
vector 1568  ErlangenLTE.eNodeB4.x2ppp[1].queue  queueLength:vector  ETV
attr interpolationmode  sample-hold
attr title  "queue length, vector"
vector 1569  ErlangenLTE.eNodeB4.x2ppp[1].ppp  txState:vector  ETV
attr interpolationmode  sample-hold
attr title  "tx state, vector"
vector 1579  ErlangenLTE.eNodeB4.x2ppp[2].queue  queueLength:vector  ETV
attr interpolationmode  sample-hold
attr title  "queue length, vector"
vector 1580  ErlangenLTE.eNodeB4.x2ppp[2].ppp  txState:vector  ETV
attr interpolationmode  sample-hold
attr title  "tx state, vector"
vector 1590  ErlangenLTE.eNodeB4.x2ppp[3].queue  queueLength:vector  ETV
attr interpolationmode  sample-hold
attr title  "queue length, vector"
vector 1591  ErlangenLTE.eNodeB4.x2ppp[3].ppp  txState:vector  ETV
attr interpolationmode  sample-hold
attr title  "tx state, vector"
vector 1647  ErlangenLTE.eNodeB5.pppIf.queue  queueLength:vector  ETV
attr interpolationmode  sample-hold
attr title  "queue length, vector"
vector 1648  ErlangenLTE.eNodeB5.pppIf.ppp  txState:vector  ETV
attr interpolationmode  sample-hold
attr title  "tx state, vector"
vector 1658  ErlangenLTE.eNodeB5.x2ppp[0].queue  queueLength:vector  ETV
attr interpolationmode  sample-hold
attr title  "queue length, vector"
vector 1659  ErlangenLTE.eNodeB5.x2ppp[0].ppp  txState:vector  ETV
attr interpolationmode  sample-hold
attr title  "tx state, vector"
vector 1669  ErlangenLTE.eNodeB5.x2ppp[1].queue  queueLength:vector  ETV
attr interpolationmode  sample-hold
attr title  "queue length, vector"
vector 1670  ErlangenLTE.eNodeB5.x2ppp[1].ppp  txState:vector  ETV
attr interpolationmode  sample-hold
attr title  "tx state, vector"
vector 1680  ErlangenLTE.eNodeB5.x2ppp[2].queue  queueLength:vector  ETV
attr interpolationmode  sample-hold
attr title  "queue length, vector"
vector 1681  ErlangenLTE.eNodeB5.x2ppp[2].ppp  txState:vector  ETV
attr interpolationmode  sample-hold
attr title  "tx state, vector"
vector 1691  ErlangenLTE.eNodeB5.x2ppp[3].queue  queueLength:vector  ETV
attr interpolationmode  sample-hold
attr title  "queue length, vector"
vector 1692  ErlangenLTE.eNodeB5.x2ppp[3].ppp  txState:vector  ETV
attr interpolationmode  sample-hold
attr title  "tx state, vector"
vector 1702  ErlangenLTE.eNodeB5.x2ppp[4].queue  queueLength:vector  ETV
attr interpolationmode  sample-hold
attr title  "queue length, vector"
vector 1703  ErlangenLTE.eNodeB5.x2ppp[4].ppp  txState:vector  ETV
attr interpolationmode  sample-hold
attr title  "tx state, vector"
vector 1713  ErlangenLTE.eNodeB5.x2ppp[5].queue  queueLength:vector  ETV
attr interpolationmode  sample-hold
attr title  "queue length, vector"
vector 1714  ErlangenLTE.eNodeB5.x2ppp[5].ppp  txState:vector  ETV
attr interpolationmode  sample-hold
attr title  "tx state, vector"
vector 1776  ErlangenLTE.eNodeB6.pppIf.queue  queueLength:vector  ETV
attr interpolationmode  sample-hold
attr title  "queue length, vector"
vector 1777  ErlangenLTE.eNodeB6.pppIf.ppp  txState:vector  ETV
attr interpolationmode  sample-hold
attr title  "tx state, vector"
vector 1787  ErlangenLTE.eNodeB6.x2ppp[0].queue  queueLength:vector  ETV
attr interpolationmode  sample-hold
attr title  "queue length, vector"
vector 1788  ErlangenLTE.eNodeB6.x2ppp[0].ppp  txState:vector  ETV
attr interpolationmode  sample-hold
attr title  "tx state, vector"
vector 1798  ErlangenLTE.eNodeB6.x2ppp[1].queue  queueLength:vector  ETV
attr interpolationmode  sample-hold
attr title  "queue length, vector"
vector 1799  ErlangenLTE.eNodeB6.x2ppp[1].ppp  txState:vector  ETV
attr interpolationmode  sample-hold
attr title  "tx state, vector"
vector 1809  ErlangenLTE.eNodeB6.x2ppp[2].queue  queueLength:vector  ETV
attr interpolationmode  sample-hold
attr title  "queue length, vector"
vector 1810  ErlangenLTE.eNodeB6.x2ppp[2].ppp  txState:vector  ETV
attr interpolationmode  sample-hold
attr title  "tx state, vector"
vector 1820  ErlangenLTE.eNodeB6.x2ppp[3].queue  queueLength:vector  ETV
attr interpolationmode  sample-hold
attr title  "queue length, vector"
vector 1821  ErlangenLTE.eNodeB6.x2ppp[3].ppp  txState:vector  ETV
attr interpolationmode  sample-hold
attr title  "tx state, vector"
vector 1831  ErlangenLTE.eNodeB6.x2ppp[4].queue  queueLength:vector  ETV
attr interpolationmode  sample-hold
attr title  "queue length, vector"
vector 1832  ErlangenLTE.eNodeB6.x2ppp[4].ppp  txState:vector  ETV
attr interpolationmode  sample-hold
attr title  "tx state, vector"
vector 1842  ErlangenLTE.eNodeB6.x2ppp[5].queue  queueLength:vector  ETV
attr interpolationmode  sample-hold
attr title  "queue length, vector"
vector 1843  ErlangenLTE.eNodeB6.x2ppp[5].ppp  txState:vector  ETV
attr interpolationmode  sample-hold
attr title  "tx state, vector"
vector 1853  ErlangenLTE.eNodeB6.x2ppp[6].queue  queueLength:vector  ETV
attr interpolationmode  sample-hold
attr title  "queue length, vector"
vector 1854  ErlangenLTE.eNodeB6.x2ppp[6].ppp  txState:vector  ETV
attr interpolationmode  sample-hold
attr title  "tx state, vector"
vector 1864  ErlangenLTE.eNodeB6.x2ppp[7].queue  queueLength:vector  ETV
attr interpolationmode  sample-hold
attr title  "queue length, vector"
vector 1865  ErlangenLTE.eNodeB6.x2ppp[7].ppp  txState:vector  ETV
attr interpolationmode  sample-hold
attr title  "tx state, vector"
vector 1875  ErlangenLTE.eNodeB6.x2ppp[8].queue  queueLength:vector  ETV
attr interpolationmode  sample-hold
attr title  "queue length, vector"
vector 1876  ErlangenLTE.eNodeB6.x2ppp[8].ppp  txState:vector  ETV
attr interpolationmode  sample-hold
attr title  "tx state, vector"
vector 1886  ErlangenLTE.eNodeB6.x2ppp[9].queue  queueLength:vector  ETV
attr interpolationmode  sample-hold
attr title  "queue length, vector"
vector 1887  ErlangenLTE.eNodeB6.x2ppp[9].ppp  txState:vector  ETV
attr interpolationmode  sample-hold
attr title  "tx state, vector"
vector 1897  ErlangenLTE.eNodeB6.x2ppp[10].queue  queueLength:vector  ETV
attr interpolationmode  sample-hold
attr title  "queue length, vector"
vector 1898  ErlangenLTE.eNodeB6.x2ppp[10].ppp  txState:vector  ETV
attr interpolationmode  sample-hold
attr title  "tx state, vector"
vector 1908  ErlangenLTE.eNodeB6.x2ppp[11].queue  queueLength:vector  ETV
attr interpolationmode  sample-hold
attr title  "queue length, vector"
vector 1909  ErlangenLTE.eNodeB6.x2ppp[11].ppp  txState:vector  ETV
attr interpolationmode  sample-hold
attr title  "tx state, vector"
vector 1919  ErlangenLTE.eNodeB6.x2ppp[12].queue  queueLength:vector  ETV
attr interpolationmode  sample-hold
attr title  "queue length, vector"
vector 1920  ErlangenLTE.eNodeB6.x2ppp[12].ppp  txState:vector  ETV
attr interpolationmode  sample-hold
attr title  "tx state, vector"
vector 1930  ErlangenLTE.eNodeB6.x2ppp[13].queue  queueLength:vector  ETV
attr interpolationmode  sample-hold
attr title  "queue length, vector"
vector 1931  ErlangenLTE.eNodeB6.x2ppp[13].ppp  txState:vector  ETV
attr interpolationmode  sample-hold
attr title  "tx state, vector"
vector 2017  ErlangenLTE.eNodeB7.pppIf.queue  queueLength:vector  ETV
attr interpolationmode  sample-hold
attr title  "queue length, vector"
vector 2018  ErlangenLTE.eNodeB7.pppIf.ppp  txState:vector  ETV
attr interpolationmode  sample-hold
attr title  "tx state, vector"
vector 2028  ErlangenLTE.eNodeB7.x2ppp[0].queue  queueLength:vector  ETV
attr interpolationmode  sample-hold
attr title  "queue length, vector"
vector 2029  ErlangenLTE.eNodeB7.x2ppp[0].ppp  txState:vector  ETV
attr interpolationmode  sample-hold
attr title  "tx state, vector"
vector 2039  ErlangenLTE.eNodeB7.x2ppp[1].queue  queueLength:vector  ETV
attr interpolationmode  sample-hold
attr title  "queue length, vector"
vector 2040  ErlangenLTE.eNodeB7.x2ppp[1].ppp  txState:vector  ETV
attr interpolationmode  sample-hold
attr title  "tx state, vector"
vector 2050  ErlangenLTE.eNodeB7.x2ppp[2].queue  queueLength:vector  ETV
attr interpolationmode  sample-hold
attr title  "queue length, vector"
vector 2051  ErlangenLTE.eNodeB7.x2ppp[2].ppp  txState:vector  ETV
attr interpolationmode  sample-hold
attr title  "tx state, vector"
vector 2061  ErlangenLTE.eNodeB7.x2ppp[3].queue  queueLength:vector  ETV
attr interpolationmode  sample-hold
attr title  "queue length, vector"
vector 2062  ErlangenLTE.eNodeB7.x2ppp[3].ppp  txState:vector  ETV
attr interpolationmode  sample-hold
attr title  "tx state, vector"
vector 2072  ErlangenLTE.eNodeB7.x2ppp[4].queue  queueLength:vector  ETV
attr interpolationmode  sample-hold
attr title  "queue length, vector"
vector 2073  ErlangenLTE.eNodeB7.x2ppp[4].ppp  txState:vector  ETV
attr interpolationmode  sample-hold
attr title  "tx state, vector"
vector 2083  ErlangenLTE.eNodeB7.x2ppp[5].queue  queueLength:vector  ETV
attr interpolationmode  sample-hold
attr title  "queue length, vector"
vector 2084  ErlangenLTE.eNodeB7.x2ppp[5].ppp  txState:vector  ETV
attr interpolationmode  sample-hold
attr title  "tx state, vector"
vector 2094  ErlangenLTE.eNodeB7.x2ppp[6].queue  queueLength:vector  ETV
attr interpolationmode  sample-hold
attr title  "queue length, vector"
vector 2095  ErlangenLTE.eNodeB7.x2ppp[6].ppp  txState:vector  ETV
attr interpolationmode  sample-hold
attr title  "tx state, vector"
vector 2105  ErlangenLTE.eNodeB7.x2ppp[7].queue  queueLength:vector  ETV
attr interpolationmode  sample-hold
attr title  "queue length, vector"
vector 2106  ErlangenLTE.eNodeB7.x2ppp[7].ppp  txState:vector  ETV
attr interpolationmode  sample-hold
attr title  "tx state, vector"
vector 2174  ErlangenLTE.eNodeB8.pppIf.queue  queueLength:vector  ETV
attr interpolationmode  sample-hold
attr title  "queue length, vector"
[...]
5759	227593 11 0 0 0 0 1 0 0 0 0
5760	227604 11 0 0 0 0 1 0 0 0 0
5770	227615 11 0 0 0 0 1 0 0 0 0
5771	227626 11 0 0 0 0 1 0 0 0 0
5836	227637 11 0 0 0 0 1 0 0 0 0
5837	227648 11 0 0 0 0 1 0 0 0 0
5847	227659 11 0 0 0 0 1 0 0 0 0
5848	227670 11 0 0 0 0 1 0 0 0 0
5858	227681 11 0 0 0 0 1 0 0 0 0
5859	227692 11 0 0 0 0 1 0 0 0 0
5869	227703 11 0 0 0 0 1 0 0 0 0
5870	227714 11 0 0 0 0 1 0 0 0 0
5880	227725 11 0 0 0 0 1 0 0 0 0
5881	227736 11 0 0 0 0 1 0 0 0 0
5891	227747 11 0 0 0 0 1 0 0 0 0
5892	227758 11 0 0 0 0 1 0 0 0 0
5902	227769 11 0 0 0 0 1 0 0 0 0
5903	227780 11 0 0 0 0 1 0 0 0 0
5913	227791 11 0 0 0 0 1 0 0 0 0
5914	227802 11 0 0 0 0 1 0 0 0 0
5924	227813 11 0 0 0 0 1 0 0 0 0
5925	227824 11 0 0 0 0 1 0 0 0 0
5935	227835 11 0 0 0 0 1 0 0 0 0
5936	227846 11 0 0 0 0 1 0 0 0 0
6007	227857 11 0 0 0 0 1 0 0 0 0
6008	227868 11 0 0 0 0 1 0 0 0 0
6018	227879 11 0 0 0 0 1 0 0 0 0
6019	227890 11 0 0 0 0 1 0 0 0 0
6029	227901 11 0 0 0 0 1 0 0 0 0
6030	227912 11 0 0 0 0 1 0 0 0 0
6040	227923 11 0 0 0 0 1 0 0 0 0
6041	227934 11 0 0 0 0 1 0 0 0 0
6051	227945 11 0 0 0 0 1 0 0 0 0
6052	227956 11 0 0 0 0 1 0 0 0 0
6062	227967 11 0 0 0 0 1 0 0 0 0
6063	227978 11 0 0 0 0 1 0 0 0 0
6073	227989 11 0 0 0 0 1 0 0 0 0
6074	228000 11 0 0 0 0 1 0 0 0 0
6084	228011 11 0 0 0 0 1 0 0 0 0
6085	228022 11 0 0 0 0 1 0 0 0 0
6095	228033 11 0 0 0 0 1 0 0 0 0
6096	228044 11 0 0 0 0 1 0 0 0 0
6106	228055 11 0 0 0 0 1 0 0 0 0
6107	228066 11 0 0 0 0 1 0 0 0 0
6117	228077 11 0 0 0 0 1 0 0 0 0
6118	228088 11 0 0 0 0 1 0 0 0 0
6128	228099 11 0 0 0 0 1 0 0 0 0
6129	228110 11 0 0 0 0 1 0 0 0 0
6206	228121 11 0 0 0 0 1 0 0 0 0
6207	228132 11 0 0 0 0 1 0 0 0 0
6217	228143 11 0 0 0 0 1 0 0 0 0
6218	228154 11 0 0 0 0 1 0 0 0 0
6228	228165 11 0 0 0 0 1 0 0 0 0
6229	228176 11 0 0 0 0 1 0 0 0 0
6239	228187 11 0 0 0 0 1 0 0 0 0
6240	228198 11 0 0 0 0 1 0 0 0 0
6250	228209 11 0 0 0 0 1 0 0 0 0
6251	228220 11 0 0 0 0 1 0 0 0 0
6307	228231 11 0 0 0 0 1 0 0 0 0
6308	228242 11 0 0 0 0 1 0 0 0 0
6318	228253 11 0 0 0 0 1 0 0 0 0
6319	228264 11 0 0 0 0 1 0 0 0 0
6329	228275 11 0 0 0 0 1 0 0 0 0
6330	228286 11 0 0 0 0 1 0 0 0 0
6340	228297 11 0 0 0 0 1 0 0 0 0
6341	228308 11 0 0 0 0 1 0 0 0 0
6351	228319 11 0 0 0 0 1 0 0 0 0
6352	228330 11 0 0 0 0 1 0 0 0 0
6362	228341 11 0 0 0 0 1 0 0 0 0
6363	228352 11 0 0 0 0 1 0 0 0 0
6373	228363 11 0 0 0 0 1 0 0 0 0
6374	228374 11 0 0 0 0 1 0 0 0 0
6384	228385 11 0 0 0 0 1 0 0 0 0
6385	228396 11 0 0 0 0 1 0 0 0 0
6395	228407 11 0 0 0 0 1 0 0 0 0
6396	228418 11 0 0 0 0 1 0 0 0 0
6406	228429 11 0 0 0 0 1 0 0 0 0
6407	228440 11 0 0 0 0 1 0 0 0 0
6417	228451 11 0 0 0 0 1 0 0 0 0
6418	228462 11 0 0 0 0 1 0 0 0 0
6428	228473 11 0 0 0 0 1 0 0 0 0
6429	228484 11 0 0 0 0 1 0 0 0 0
6506	228495 11 0 0 0 0 1 0 0 0 0
6507	228506 11 0 0 0 0 1 0 0 0 0
6517	228517 11 0 0 0 0 1 0 0 0 0
6518	228528 11 0 0 0 0 1 0 0 0 0
6528	228539 11 0 0 0 0 1 0 0 0 0
6529	228550 11 0 0 0 0 1 0 0 0 0
6539	228561 11 0 0 0 0 1 0 0 0 0
6540	228572 11 0 0 0 0 1 0 0 0 0
6550	228583 11 0 0 0 0 1 0 0 0 0
6551	228594 11 0 0 0 0 1 0 0 0 0
6561	228605 11 0 0 0 0 1 0 0 0 0
6562	228616 11 0 0 0 0 1 0 0 0 0
6572	228627 11 0 0 0 0 1 0 0 0 0
6573	228638 11 0 0 0 0 1 0 0 0 0
6583	228649 11 0 0 0 0 1 0 0 0 0
6584	228660 11 0 0 0 0 1 0 0 0 0
6649	228671 11 0 0 0 0 1 0 0 0 0
6650	228682 11 0 0 0 0 1 0 0 0 0
6660	228693 11 0 0 0 0 1 0 0 0 0
6661	228704 11 0 0 0 0 1 0 0 0 0
6671	228715 11 0 0 0 0 1 0 0 0 0
6672	228726 11 0 0 0 0 1 0 0 0 0
6682	228737 11 0 0 0 0 1 0 0 0 0
6683	228748 11 0 0 0 0 1 0 0 0 0
6693	228759 11 0 0 0 0 1 0 0 0 0
6694	228770 11 0 0 0 0 1 0 0 0 0
6750	228781 11 0 0 0 0 1 0 0 0 0
6751	228792 11 0 0 0 0 1 0 0 0 0
6761	228803 11 0 0 0 0 1 0 0 0 0
6762	228814 11 0 0 0 0 1 0 0 0 0
6772	228825 11 0 0 0 0 1 0 0 0 0
6773	228836 11 0 0 0 0 1 0 0 0 0
6783	228847 11 0 0 0 0 1 0 0 0 0
6784	228858 11 0 0 0 0 1 0 0 0 0
6794	228869 11 0 0 0 0 1 0 0 0 0
6795	228880 11 0 0 0 0 1 0 0 0 0
6805	228891 11 0 0 0 0 1 0 0 0 0
6806	228902 11 0 0 0 0 1 0 0 0 0
6816	228913 11 0 0 0 0 1 0 0 0 0
6817	228924 11 0 0 0 0 1 0 0 0 0
6827	228935 11 0 0 0 0 1 0 0 0 0
6828	228946 11 0 0 0 0 1 0 0 0 0
6893	228957 11 0 0 0 0 1 0 0 0 0
6894	228968 11 0 0 0 0 1 0 0 0 0
6904	228979 11 0 0 0 0 1 0 0 0 0
6905	228990 11 0 0 0 0 1 0 0 0 0
6915	229001 11 0 0 0 0 1 0 0 0 0
6916	229012 11 0 0 0 0 1 0 0 0 0
6926	229023 11 0 0 0 0 1 0 0 0 0
6927	229034 11 0 0 0 0 1 0 0 0 0
6937	229045 11 0 0 0 0 1 0 0 0 0
6938	229056 11 0 0 0 0 1 0 0 0 0
6948	229067 11 0 0 0 0 1 0 0 0 0
6949	229078 11 0 0 0 0 1 0 0 0 0
6959	229089 11 0 0 0 0 1 0 0 0 0
6960	229100 11 0 0 0 0 1 0 0 0 0
6970	229111 11 0 0 0 0 1 0 0 0 0
6971	229122 11 0 0 0 0 1 0 0 0 0
6981	229133 11 0 0 0 0 1 0 0 0 0
6982	229144 11 0 0 0 0 1 0 0 0 0
6992	229155 11 0 0 0 0 1 0 0 0 0
6993	229166 11 0 0 0 0 1 0 0 0 0
7003	229177 11 0 0 0 0 1 0 0 0 0
7004	229188 11 0 0 0 0 1 0 0 0 0
7014	229199 11 0 0 0 0 1 0 0 0 0
7015	229210 11 0 0 0 0 1 0 0 0 0
7025	229221 11 0 0 0 0 1 0 0 0 0
7026	229232 11 0 0 0 0 1 0 0 0 0
7036	229243 11 0 0 0 0 1 0 0 0 0
7037	229254 11 0 0 0 0 1 0 0 0 0
7120	229265 11 0 0 0 0 1 0 0 0 0
7121	229276 11 0 0 0 0 1 0 0 0 0
7131	229287 11 0 0 0 0 1 0 0 0 0
7132	229298 11 0 0 0 0 1 0 0 0 0
7142	229309 11 0 0 0 0 1 0 0 0 0
7143	229320 11 0 0 0 0 1 0 0 0 0
7153	229331 11 0 0 0 0 1 0 0 0 0
7154	229342 11 0 0 0 0 1 0 0 0 0
7164	229353 11 0 0 0 0 1 0 0 0 0
7165	229364 11 0 0 0 0 1 0 0 0 0
7175	229375 11 0 0 0 0 1 0 0 0 0
7176	229386 11 0 0 0 0 1 0 0 0 0
7186	229397 11 0 0 0 0 1 0 0 0 0
7187	229408 11 0 0 0 0 1 0 0 0 0
7197	229419 11 0 0 0 0 1 0 0 0 0
7198	229430 11 0 0 0 0 1 0 0 0 0
7208	229441 11 0 0 0 0 1 0 0 0 0
7209	229452 11 0 0 0 0 1 0 0 0 0
7219	229463 11 0 0 0 0 1 0 0 0 0
7220	229474 11 0 0 0 0 1 0 0 0 0
7291	229485 11 0 0 0 0 1 0 0 0 0
7292	229496 11 0 0 0 0 1 0 0 0 0
7302	229507 11 0 0 0 0 1 0 0 0 0
7303	229518 11 0 0 0 0 1 0 0 0 0
7313	229529 11 0 0 0 0 1 0 0 0 0
7314	229540 11 0 0 0 0 1 0 0 0 0
7324	229551 11 0 0 0 0 1 0 0 0 0
7325	229562 11 0 0 0 0 1 0 0 0 0
7335	229573 11 0 0 0 0 1 0 0 0 0
7336	229584 11 0 0 0 0 1 0 0 0 0
7346	229595 11 0 0 0 0 1 0 0 0 0
7347	229606 11 0 0 0 0 1 0 0 0 0
7357	229617 11 0 0 0 0 1 0 0 0 0
7358	229628 11 0 0 0 0 1 0 0 0 0
7368	229639 11 0 0 0 0 1 0 0 0 0
7369	229650 11 0 0 0 0 1 0 0 0 0
7379	229661 11 0 0 0 0 1 0 0 0 0
7380	229672 11 0 0 0 0 1 0 0 0 0
7390	229683 11 0 0 0 0 1 0 0 0 0
7391	229694 11 0 0 0 0 1 0 0 0 0
7462	229705 11 0 0 0 0 1 0 0 0 0
7463	229716 11 0 0 0 0 1 0 0 0 0
7473	229727 11 0 0 0 0 1 0 0 0 0
7474	229738 11 0 0 0 0 1 0 0 0 0
7484	229749 11 0 0 0 0 1 0 0 0 0
7485	229760 11 0 0 0 0 1 0 0 0 0
7495	229771 11 0 0 0 0 1 0 0 0 0
7496	229782 11 0 0 0 0 1 0 0 0 0
7506	229793 11 0 0 0 0 1 0 0 0 0
7507	229804 11 0 0 0 0 1 0 0 0 0
7517	229815 11 0 0 0 0 1 0 0 0 0
7518	229826 11 0 0 0 0 1 0 0 0 0
7528	229837 11 0 0 0 0 1 0 0 0 0
7529	229848 11 0 0 0 0 1 0 0 0 0
7591	229859 11 0 0 0 0 1 0 0 0 0
7592	229870 11 0 0 0 0 1 0 0 0 0
7602	229881 11 0 0 0 0 1 0 0 0 0
7603	229892 11 0 0 0 0 1 0 0 0 0
7613	229903 11 0 0 0 0 1 0 0 0 0
7614	229914 11 0 0 0 0 1 0 0 0 0
7624	229925 11 0 0 0 0 1 0 0 0 0
7625	229936 11 0 0 0 0 1 0 0 0 0
7635	229947 11 0 0 0 0 1 0 0 0 0
7636	229958 11 0 0 0 0 1 0 0 0 0
7646	229969 11 0 0 0 0 1 0 0 0 0
7647	229980 11 0 0 0 0 1 0 0 0 0
7657	229991 11 0 0 0 0 1 0 0 0 0
7658	230002 11 0 0 0 0 1 0 0 0 0
7668	230013 11 0 0 0 0 1 0 0 0 0
7669	230024 11 0 0 0 0 1 0 0 0 0
7679	230035 11 0 0 0 0 1 0 0 0 0
7680	230046 11 0 0 0 0 1 0 0 0 0
7690	230057 11 0 0 0 0 1 0 0 0 0
7691	230068 11 0 0 0 0 1 0 0 0 0
7701	230079 11 0 0 0 0 1 0 0 0 0
7702	230090 11 0 0 0 0 1 0 0 0 0
7712	230101 11 0 0 0 0 1 0 0 0 0
7713	230112 11 0 0 0 0 1 0 0 0 0
7723	230123 11 0 0 0 0 1 0 0 0 0
7724	230134 11 0 0 0 0 1 0 0 0 0
7734	230145 11 0 0 0 0 1 0 0 0 0
7735	230156 11 0 0 0 0 1 0 0 0 0
7818	230167 11 0 0 0 0 1 0 0 0 0
7819	230178 11 0 0 0 0 1 0 0 0 0
7829	230189 11 0 0 0 0 1 0 0 0 0
7830	230200 11 0 0 0 0 1 0 0 0 0
7840	230211 11 0 0 0 0 1 0 0 0 0
7841	230222 11 0 0 0 0 1 0 0 0 0
7851	230233 11 0 0 0 0 1 0 0 0 0
7852	230244 11 0 0 0 0 1 0 0 0 0
7862	230255 11 0 0 0 0 1 0 0 0 0
7863	230266 11 0 0 0 0 1 0 0 0 0
7873	230277 11 0 0 0 0 1 0 0 0 0
7874	230288 11 0 0 0 0 1 0 0 0 0
7884	230299 11 0 0 0 0 1 0 0 0 0
7885	230310 11 0 0 0 0 1 0 0 0 0
7895	230321 11 0 0 0 0 1 0 0 0 0
7896	230332 11 0 0 0 0 1 0 0 0 0
7906	230343 11 0 0 0 0 1 0 0 0 0
7907	230354 11 0 0 0 0 1 0 0 0 0
7975	230365 11 0 0 0 0 1 0 0 0 0
7976	230376 11 0 0 0 0 1 0 0 0 0
7986	230387 11 0 0 0 0 1 0 0 0 0
7987	230398 11 0 0 0 0 1 0 0 0 0
7997	230409 11 0 0 0 0 1 0 0 0 0
7998	230420 11 0 0 0 0 1 0 0 0 0
8008	230431 11 0 0 0 0 1 0 0 0 0
8009	230442 11 0 0 0 0 1 0 0 0 0
8019	230453 11 0 0 0 0 1 0 0 0 0
8020	230464 11 0 0 0 0 1 0 0 0 0
8030	230475 11 0 0 0 0 1 0 0 0 0
8031	230486 11 0 0 0 0 1 0 0 0 0
8041	230497 11 0 0 0 0 1 0 0 0 0
8042	230508 11 0 0 0 0 1 0 0 0 0
8052	230519 11 0 0 0 0 1 0 0 0 0
8053	230530 11 0 0 0 0 1 0 0 0 0
8063	230541 11 0 0 0 0 1 0 0 0 0
8064	230552 11 0 0 0 0 1 0 0 0 0
8074	230563 11 0 0 0 0 1 0 0 0 0
8075	230574 11 0 0 0 0 1 0 0 0 0
8146	230585 11 0 0 0 0 1 0 0 0 0
8147	230596 11 0 0 0 0 1 0 0 0 0
8157	230607 11 0 0 0 0 1 0 0 0 0
8158	230618 11 0 0 0 0 1 0 0 0 0
8168	230629 11 0 0 0 0 1 0 0 0 0
8169	230640 11 0 0 0 0 1 0 0 0 0
8179	230651 11 0 0 0 0 1 0 0 0 0
8180	230662 11 0 0 0 0 1 0 0 0 0
8190	230673 11 0 0 0 0 1 0 0 0 0
8191	230684 11 0 0 0 0 1 0 0 0 0
8247	230695 11 0 0 0 0 1 0 0 0 0
8248	230706 11 0 0 0 0 1 0 0 0 0
8258	230717 11 0 0 0 0 1 0 0 0 0
8259	230728 11 0 0 0 0 1 0 0 0 0
8269	230739 11 0 0 0 0 1 0 0 0 0
8270	230750 11 0 0 0 0 1 0 0 0 0
8280	230761 11 0 0 0 0 1 0 0 0 0
8281	230772 11 0 0 0 0 1 0 0 0 0
8291	230783 11 0 0 0 0 1 0 0 0 0
8292	230794 11 0 0 0 0 1 0 0 0 0
8302	230805 11 0 0 0 0 1 0 0 0 0
8303	230816 11 0 0 0 0 1 0 0 0 0
8313	230827 11 0 0 0 0 1 0 0 0 0
8314	230838 11 0 0 0 0 1 0 0 0 0
8324	230849 11 0 0 0 0 1 0 0 0 0
8325	230860 11 0 0 0 0 1 0 0 0 0
8390	230871 11 0 0 0 0 1 0 0 0 0
8391	230882 11 0 0 0 0 1 0 0 0 0
8401	230893 11 0 0 0 0 1 0 0 0 0
8402	230904 11 0 0 0 0 1 0 0 0 0
8412	230915 11 0 0 0 0 1 0 0 0 0
8413	230926 11 0 0 0 0 1 0 0 0 0
8423	230937 11 0 0 0 0 1 0 0 0 0
8424	230948 11 0 0 0 0 1 0 0 0 0
8434	230959 11 0 0 0 0 1 0 0 0 0
8435	230970 11 0 0 0 0 1 0 0 0 0
8445	230981 11 0 0 0 0 1 0 0 0 0
8446	230992 11 0 0 0 0 1 0 0 0 0
8456	231003 11 0 0 0 0 1 0 0 0 0
8457	231014 11 0 0 0 0 1 0 0 0 0
8467	231025 11 0 0 0 0 1 0 0 0 0
8468	231036 11 0 0 0 0 1 0 0 0 0
8478	231047 11 0 0 0 0 1 0 0 0 0
8479	231058 11 0 0 0 0 1 0 0 0 0
8489	231069 11 0 0 0 0 1 0 0 0 0
8490	231080 11 0 0 0 0 1 0 0 0 0
8500	231091 11 0 0 0 0 1 0 0 0 0
8501	231102 11 0 0 0 0 1 0 0 0 0
8575	231113 11 0 0 0 0 1 0 0 0 0
8576	231124 11 0 0 0 0 1 0 0 0 0
8586	231135 11 0 0 0 0 1 0 0 0 0
8587	231146 11 0 0 0 0 1 0 0 0 0
8597	231157 11 0 0 0 0 1 0 0 0 0
8598	231168 11 0 0 0 0 1 0 0 0 0
8608	231179 11 0 0 0 0 1 0 0 0 0
8609	231190 11 0 0 0 0 1 0 0 0 0
8619	231201 11 0 0 0 0 1 0 0 0 0
8620	231212 11 0 0 0 0 1 0 0 0 0
8630	231223 11 0 0 0 0 1 0 0 0 0
8631	231234 11 0 0 0 0 1 0 0 0 0
8641	231245 11 0 0 0 0 1 0 0 0 0
8642	231256 11 0 0 0 0 1 0 0 0 0
8652	231267 11 0 0 0 0 1 0 0 0 0
8653	231278 11 0 0 0 0 1 0 0 0 0
8718	231289 11 0 0 0 0 1 0 0 0 0
8719	231300 11 0 0 0 0 1 0 0 0 0
8729	231311 11 0 0 0 0 1 0 0 0 0
8730	231322 11 0 0 0 0 1 0 0 0 0
8740	231333 11 0 0 0 0 1 0 0 0 0
8741	231344 11 0 0 0 0 1 0 0 0 0
8751	231355 11 0 0 0 0 1 0 0 0 0
8752	231366 11 0 0 0 0 1 0 0 0 0
8762	231377 11 0 0 0 0 1 0 0 0 0
8763	231388 11 0 0 0 0 1 0 0 0 0
8773	231399 11 0 0 0 0 1 0 0 0 0
8774	231410 11 0 0 0 0 1 0 0 0 0
8784	231421 11 0 0 0 0 1 0 0 0 0
8785	231432 11 0 0 0 0 1 0 0 0 0
8795	231443 11 0 0 0 0 1 0 0 0 0
8796	231454 11 0 0 0 0 1 0 0 0 0
8861	231465 11 0 0 0 0 1 0 0 0 0
8862	231476 11 0 0 0 0 1 0 0 0 0
8872	231487 11 0 0 0 0 1 0 0 0 0
8873	231498 11 0 0 0 0 1 0 0 0 0
8883	231509 11 0 0 0 0 1 0 0 0 0
8884	231520 11 0 0 0 0 1 0 0 0 0
8894	231531 11 0 0 0 0 1 0 0 0 0
8895	231542 11 0 0 0 0 1 0 0 0 0
8905	231553 11 0 0 0 0 1 0 0 0 0
8906	231564 11 0 0 0 0 1 0 0 0 0
8916	231575 11 0 0 0 0 1 0 0 0 0
8917	231586 11 0 0 0 0 1 0 0 0 0
8927	231597 11 0 0 0 0 1 0 0 0 0
8928	231608 11 0 0 0 0 1 0 0 0 0
8938	231619 11 0 0 0 0 1 0 0 0 0
8939	231630 11 0 0 0 0 1 0 0 0 0
8949	231641 11 0 0 0 0 1 0 0 0 0
8950	231652 11 0 0 0 0 1 0 0 0 0
8960	231663 11 0 0 0 0 1 0 0 0 0
8961	231674 11 0 0 0 0 1 0 0 0 0
8971	231685 11 0 0 0 0 1 0 0 0 0
8972	231696 11 0 0 0 0 1 0 0 0 0
8982	231707 11 0 0 0 0 1 0 0 0 0
8983	231718 11 0 0 0 0 1 0 0 0 0
9060	231729 11 0 0 0 0 1 0 0 0 0
9061	231740 11 0 0 0 0 1 0 0 0 0
9071	231751 11 0 0 0 0 1 0 0 0 0
9072	231762 11 0 0 0 0 1 0 0 0 0
9082	231773 11 0 0 0 0 1 0 0 0 0
9083	231784 11 0 0 0 0 1 0 0 0 0
9093	231795 11 0 0 0 0 1 0 0 0 0
9094	231806 11 0 0 0 0 1 0 0 0 0
9104	231817 11 0 0 0 0 1 0 0 0 0
9105	231828 11 0 0 0 0 1 0 0 0 0
9115	231839 11 0 0 0 0 1 0 0 0 0
9116	231850 11 0 0 0 0 1 0 0 0 0
9126	231861 11 0 0 0 0 1 0 0 0 0
9127	231872 11 0 0 0 0 1 0 0 0 0
9137	231883 11 0 0 0 0 1 0 0 0 0
9138	231894 11 0 0 0 0 1 0 0 0 0
9203	231905 11 0 0 0 0 1 0 0 0 0
9204	231916 11 0 0 0 0 1 0 0 0 0
9214	231927 11 0 0 0 0 1 0 0 0 0
9215	231938 11 0 0 0 0 1 0 0 0 0
9225	231949 11 0 0 0 0 1 0 0 0 0
9226	231960 11 0 0 0 0 1 0 0 0 0
9236	231971 11 0 0 0 0 1 0 0 0 0
9237	231982 11 0 0 0 0 1 0 0 0 0
9247	231993 11 0 0 0 0 1 0 0 0 0
9248	232004 11 0 0 0 0 1 0 0 0 0
9258	232015 11 0 0 0 0 1 0 0 0 0
9259	232026 11 0 0 0 0 1 0 0 0 0
9269	232037 11 0 0 0 0 1 0 0 0 0
9270	232048 11 0 0 0 0 1 0 0 0 0
9332	232059 11 0 0 0 0 1 0 0 0 0
9333	232070 11 0 0 0 0 1 0 0 0 0
9343	232081 11 0 0 0 0 1 0 0 0 0
9344	232092 11 0 0 0 0 1 0 0 0 0
9354	232103 11 0 0 0 0 1 0 0 0 0
9355	232114 11 0 0 0 0 1 0 0 0 0
9365	232125 11 0 0 0 0 1 0 0 0 0
9366	232136 11 0 0 0 0 1 0 0 0 0
9419	232147 11 0 0 0 0 1 0 0 0 0
9420	232158 11 0 0 0 0 1 0 0 0 0
9430	232169 11 0 0 0 0 1 0 0 0 0
9431	232180 11 0 0 0 0 1 0 0 0 0
9441	232191 11 0 0 0 0 1 0 0 0 0
9442	232202 11 0 0 0 0 1 0 0 0 0
9452	232213 11 0 0 0 0 1 0 0 0 0
9453	232224 11 0 0 0 0 1 0 0 0 0
9463	232235 11 0 0 0 0 1 0 0 0 0
9464	232246 11 0 0 0 0 1 0 0 0 0
9474	232257 11 0 0 0 0 1 0 0 0 0
9475	232268 11 0 0 0 0 1 0 0 0 0
9485	232279 11 0 0 0 0 1 0 0 0 0
9486	232290 11 0 0 0 0 1 0 0 0 0
9496	232301 11 0 0 0 0 1 0 0 0 0
9497	232312 11 0 0 0 0 1 0 0 0 0
9507	232323 11 0 0 0 0 1 0 0 0 0
9508	232334 11 0 0 0 0 1 0 0 0 0
9518	232345 11 0 0 0 0 1 0 0 0 0
9519	232356 11 0 0 0 0 1 0 0 0 0
9529	232367 11 0 0 0 0 1 0 0 0 0
9530	232378 11 0 0 0 0 1 0 0 0 0
9540	232389 11 0 0 0 0 1 0 0 0 0
9541	232400 11 0 0 0 0 1 0 0 0 0
9551	232411 11 0 0 0 0 1 0 0 0 0
9552	232422 11 0 0 0 0 1 0 0 0 0
9632	232433 11 0 0 0 0 1 0 0 0 0
9633	232444 11 0 0 0 0 1 0 0 0 0
9643	232455 11 0 0 0 0 1 0 0 0 0
9644	232466 11 0 0 0 0 1 0 0 0 0
9654	232477 11 0 0 0 0 1 0 0 0 0
9655	232488 11 0 0 0 0 1 0 0 0 0
9665	232499 11 0 0 0 0 1 0 0 0 0
9666	232510 11 0 0 0 0 1 0 0 0 0
9676	232521 11 0 0 0 0 1 0 0 0 0
9677	232532 11 0 0 0 0 1 0 0 0 0
9687	232543 11 0 0 0 0 1 0 0 0 0
9688	232554 11 0 0 0 0 1 0 0 0 0
9698	232565 11 0 0 0 0 1 0 0 0 0
9699	232576 11 0 0 0 0 1 0 0 0 0
9709	232587 11 0 0 0 0 1 0 0 0 0
9710	232598 11 0 0 0 0 1 0 0 0 0
9720	232609 11 0 0 0 0 1 0 0 0 0
9721	232620 11 0 0 0 0 1 0 0 0 0
9789	232631 11 0 0 0 0 1 0 0 0 0
9790	232642 11 0 0 0 0 1 0 0 0 0
9800	232653 11 0 0 0 0 1 0 0 0 0
9801	232664 11 0 0 0 0 1 0 0 0 0
9811	232675 11 0 0 0 0 1 0 0 0 0
9812	232686 11 0 0 0 0 1 0 0 0 0
9822	232697 11 0 0 0 0 1 0 0 0 0
9823	232708 11 0 0 0 0 1 0 0 0 0
9833	232719 11 0 0 0 0 1 0 0 0 0
9834	232730 11 0 0 0 0 1 0 0 0 0
9844	232741 11 0 0 0 0 1 0 0 0 0
9845	232752 11 0 0 0 0 1 0 0 0 0
9855	232763 11 0 0 0 0 1 0 0 0 0
9856	232774 11 0 0 0 0 1 0 0 0 0
9866	232785 11 0 0 0 0 1 0 0 0 0
9867	232796 11 0 0 0 0 1 0 0 0 0
9877	232807 11 0 0 0 0 1 0 0 0 0
9878	232818 11 0 0 0 0 1 0 0 0 0
9888	232829 11 0 0 0 0 1 0 0 0 0
9889	232840 11 0 0 0 0 1 0 0 0 0
9960	232851 11 0 0 0 0 1 0 0 0 0
9961	232862 11 0 0 0 0 1 0 0 0 0
9971	232873 11 0 0 0 0 1 0 0 0 0
9972	232884 11 0 0 0 0 1 0 0 0 0
9982	232895 11 0 0 0 0 1 0 0 0 0
9983	232906 11 0 0 0 0 1 0 0 0 0
9993	232917 11 0 0 0 0 1 0 0 0 0
9994	232928 11 0 0 0 0 1 0 0 0 0
10004	232939 12 0 0 0 0 1 0 0 0 0
10005	232951 12 0 0 0 0 1 0 0 0 0
10015	232963 12 0 0 0 0 1 0 0 0 0
10016	232975 12 0 0 0 0 1 0 0 0 0
10026	232987 12 0 0 0 0 1 0 0 0 0
10027	232999 12 0 0 0 0 1 0 0 0 0
10037	233011 12 0 0 0 0 1 0 0 0 0
10038	233023 12 0 0 0 0 1 0 0 0 0
10048	233035 12 0 0 0 0 1 0 0 0 0
10049	233047 12 0 0 0 0 1 0 0 0 0
10059	233059 12 0 0 0 0 1 0 0 0 0
10060	233071 12 0 0 0 0 1 0 0 0 0
10131	233083 12 0 0 0 0 1 0 0 0 0
10132	233095 12 0 0 0 0 1 0 0 0 0
10142	233107 12 0 0 0 0 1 0 0 0 0
10143	233119 12 0 0 0 0 1 0 0 0 0
10153	233131 12 0 0 0 0 1 0 0 0 0
10154	233143 12 0 0 0 0 1 0 0 0 0
10164	233155 12 0 0 0 0 1 0 0 0 0
10165	233167 12 0 0 0 0 1 0 0 0 0
10175	233179 12 0 0 0 0 1 0 0 0 0
10176	233191 12 0 0 0 0 1 0 0 0 0
10232	233203 12 0 0 0 0 1 0 0 0 0
10233	233215 12 0 0 0 0 1 0 0 0 0
10243	233227 12 0 0 0 0 1 0 0 0 0
10244	233239 12 0 0 0 0 1 0 0 0 0
10254	233251 12 0 0 0 0 1 0 0 0 0
10255	233263 12 0 0 0 0 1 0 0 0 0
10265	233275 12 0 0 0 0 1 0 0 0 0
10266	233287 12 0 0 0 0 1 0 0 0 0
10276	233299 12 0 0 0 0 1 0 0 0 0
10277	233311 12 0 0 0 0 1 0 0 0 0
10287	233323 12 0 0 0 0 1 0 0 0 0
10288	233335 12 0 0 0 0 1 0 0 0 0
10298	233347 12 0 0 0 0 1 0 0 0 0
10299	233359 12 0 0 0 0 1 0 0 0 0
10309	233371 12 0 0 0 0 1 0 0 0 0
10310	233383 12 0 0 0 0 1 0 0 0 0
10375	233395 12 0 0 0 0 1 0 0 0 0
10376	233407 12 0 0 0 0 1 0 0 0 0
10386	233419 12 0 0 0 0 1 0 0 0 0
10387	233431 12 0 0 0 0 1 0 0 0 0
10397	233443 12 0 0 0 0 1 0 0 0 0
10398	233455 12 0 0 0 0 1 0 0 0 0
10408	233467 12 0 0 0 0 1 0 0 0 0
10409	233479 12 0 0 0 0 1 0 0 0 0
10419	233491 12 0 0 0 0 1 0 0 0 0
10420	233503 12 0 0 0 0 1 0 0 0 0
10430	233515 12 0 0 0 0 1 0 0 0 0
10431	233527 12 0 0 0 0 1 0 0 0 0
10441	233539 12 0 0 0 0 1 0 0 0 0
10442	233551 12 0 0 0 0 1 0 0 0 0
10452	233563 12 0 0 0 0 1 0 0 0 0
10453	233575 12 0 0 0 0 1 0 0 0 0
10463	233587 12 0 0 0 0 1 0 0 0 0
10464	233599 12 0 0 0 0 1 0 0 0 0
10474	233611 12 0 0 0 0 1 0 0 0 0
10475	233623 12 0 0 0 0 1 0 0 0 0
10485	233635 12 0 0 0 0 1 0 0 0 0
10486	233647 12 0 0 0 0 1 0 0 0 0
10560	233659 12 0 0 0 0 1 0 0 0 0
10561	233671 12 0 0 0 0 1 0 0 0 0
10571	233683 12 0 0 0 0 1 0 0 0 0
10572	233695 12 0 0 0 0 1 0 0 0 0
10582	233707 12 0 0 0 0 1 0 0 0 0
10583	233719 12 0 0 0 0 1 0 0 0 0
10593	233731 12 0 0 0 0 1 0 0 0 0
10594	233743 12 0 0 0 0 1 0 0 0 0
10604	233755 12 0 0 0 0 1 0 0 0 0
10605	233767 12 0 0 0 0 1 0 0 0 0
10615	233779 12 0 0 0 0 1 0 0 0 0
10616	233791 12 0 0 0 0 1 0 0 0 0
10675	233803 12 0 0 0 0 1 0 0 0 0
10676	233815 12 0 0 0 0 1 0 0 0 0
10686	233827 12 0 0 0 0 1 0 0 0 0
10687	233839 12 0 0 0 0 1 0 0 0 0
10697	233851 12 0 0 0 0 1 0 0 0 0
10698	233863 12 0 0 0 0 1 0 0 0 0
10708	233875 12 0 0 0 0 1 0 0 0 0
10709	233887 12 0 0 0 0 1 0 0 0 0
10719	233899 12 0 0 0 0 1 0 0 0 0
10720	233911 12 0 0 0 0 1 0 0 0 0
10730	233923 12 0 0 0 0 1 0 0 0 0
10731	233935 12 0 0 0 0 1 0 0 0 0
10790	233947 12 0 0 0 0 1 0 0 0 0
10791	233959 12 0 0 0 0 1 0 0 0 0
10801	233971 12 0 0 0 0 1 0 0 0 0
10802	233983 12 0 0 0 0 1 0 0 0 0
10812	233995 12 0 0 0 0 1 0 0 0 0
10813	234007 12 0 0 0 0 1 0 0 0 0
10823	234019 12 0 0 0 0 1 0 0 0 0
10824	234031 12 0 0 0 0 1 0 0 0 0
10834	234043 12 0 0 0 0 1 0 0 0 0
10835	234055 12 0 0 0 0 1 0 0 0 0
10845	234067 12 0 0 0 0 1 0 0 0 0
10846	234079 12 0 0 0 0 1 0 0 0 0
10856	234091 12 0 0 0 0 1 0 0 0 0
10857	234103 12 0 0 0 0 1 0 0 0 0
10867	234115 12 0 0 0 0 1 0 0 0 0
10868	234127 12 0 0 0 0 1 0 0 0 0
10878	234139 12 0 0 0 0 1 0 0 0 0
10879	234151 12 0 0 0 0 1 0 0 0 0
10889	234163 12 0 0 0 0 1 0 0 0 0
10890	234175 12 0 0 0 0 1 0 0 0 0
10900	234187 12 0 0 0 0 1 0 0 0 0
10901	234199 12 0 0 0 0 1 0 0 0 0
10911	234211 12 0 0 0 0 1 0 0 0 0
10912	234223 12 0 0 0 0 1 0 0 0 0
10922	234235 12 0 0 0 0 1 0 0 0 0
10923	234247 12 0 0 0 0 1 0 0 0 0
10933	234259 12 0 0 0 0 1 0 0 0 0
10934	234271 12 0 0 0 0 1 0 0 0 0
10944	234283 12 0 0 0 0 1 0 0 0 0
10945	234295 12 0 0 0 0 1 0 0 0 0
10955	234307 12 0 0 0 0 1 0 0 0 0
10956	234319 12 0 0 0 0 1 0 0 0 0
