file 49965582 1549319132                                        
version 2
run VoIP-DL-0-20190204-21:27:45-2415
attr configname VoIP-DL
attr datetime 20190204-21:27:45
attr experiment VoIP-DL
attr inifile omnetpp.ini
attr iterationvars ""
attr iterationvarsf ""
attr measurement ""
attr network ErlangenLTE
attr processid 2415
attr repetition 0
attr replication #0
attr resultdir results
attr runnumber 0
attr seedset 0
param **.broadcastMessageInterval 0.5s
param **.car[*].macCellId 1
param **.car[*].masterId 1
param **.channelControl.alpha 1.0
param **.channelControl.carrierFrequency 2100e+6Hz
param **.channelControl.pMax 1W
param **.coreDebug false
param **.deployer.antennaCws "\"2;\""
param **.deployer.numRbDl 25
param **.deployer.numRbUl 25
param **.deployer.positionUpdateInterval 0.05s
param **.deployer.ruRange 50
param **.deployer.ruTxPower "\"50,50,50;\""
param **.dynamicCellAssociation true
param **.eNodeB*.mobility.constraintAreaMaxX 3000m
param **.eNodeB*.mobility.constraintAreaMaxY 3000m
param **.eNodeB*.mobility.constraintAreaMaxZ 0m
param **.eNodeB*.mobility.constraintAreaMinX 0m
param **.eNodeB*.mobility.constraintAreaMinY 0m
param **.eNodeB*.mobility.constraintAreaMinZ 0m
param **.eNodeB*.mobility.initFromDisplayString true
param **.eNodeB1.macCellId 1
param **.eNodeB1.macNodeId 1
param **.eNodeB10.macCellId 10
param **.eNodeB10.macNodeId 10
param **.eNodeB11.macCellId 11
param **.eNodeB11.macNodeId 11
param **.eNodeB12.macCellId 12
param **.eNodeB12.macNodeId 12
param **.eNodeB13.macCellId 13
param **.eNodeB13.macNodeId 13
param **.eNodeB14.macCellId 14
param **.eNodeB14.macNodeId 14
param **.eNodeB15.macCellId 15
param **.eNodeB15.macNodeId 15
param **.eNodeB16.macCellId 16
param **.eNodeB16.macNodeId 16
param **.eNodeB17.macCellId 17
param **.eNodeB17.macNodeId 17
param **.eNodeB18.macCellId 18
param **.eNodeB18.macNodeId 18
param **.eNodeB19.macCellId 19
param **.eNodeB19.macNodeId 19
param **.eNodeB2.macCellId 2
param **.eNodeB2.macNodeId 2
param **.eNodeB20.macCellId 20
param **.eNodeB20.macNodeId 20
param **.eNodeB21.macCellId 21
param **.eNodeB21.macNodeId 21
param **.eNodeB22.macCellId 22
param **.eNodeB22.macNodeId 22
param **.eNodeB23.macCellId 23
param **.eNodeB23.macNodeId 23
param **.eNodeB24.macCellId 24
param **.eNodeB24.macNodeId 24
param **.eNodeB25.macCellId 25
param **.eNodeB25.macNodeId 25
param **.eNodeB26.macCellId 26
param **.eNodeB26.macNodeId 26
param **.eNodeB27.macCellId 27
param **.eNodeB27.macNodeId 27
param **.eNodeB28.macCellId 28
param **.eNodeB28.macNodeId 28
param **.eNodeB29.macCellId 29
param **.eNodeB29.macNodeId 29
param **.eNodeB3.macCellId 3
param **.eNodeB3.macNodeId 3
param **.eNodeB30.macCellId 30
param **.eNodeB30.macNodeId 30
param **.eNodeB31.macCellId 31
param **.eNodeB31.macNodeId 31
param **.eNodeB32.macCellId 32
param **.eNodeB32.macNodeId 32
param **.eNodeB33.macCellId 33
param **.eNodeB33.macNodeId 33
param **.eNodeB34.macCellId 34
param **.eNodeB34.macNodeId 34
param **.eNodeB35.macCellId 35
param **.eNodeB35.macNodeId 35
param **.eNodeB36.macCellId 36
param **.eNodeB36.macNodeId 36
param **.eNodeB37.macCellId 37
param **.eNodeB37.macNodeId 37
param **.eNodeB38.macCellId 38
param **.eNodeB38.macNodeId 38
param **.eNodeB39.macCellId 39
param **.eNodeB39.macNodeId 39
param **.eNodeB4.macCellId 4
param **.eNodeB4.macNodeId 4
param **.eNodeB40.macCellId 40
param **.eNodeB40.macNodeId 40
param **.eNodeB41.macCellId 41
param **.eNodeB41.macNodeId 41
param **.eNodeB42.macCellId 42
param **.eNodeB42.macNodeId 42
param **.eNodeB43.macCellId 43
param **.eNodeB43.macNodeId 43
param **.eNodeB44.macCellId 44
param **.eNodeB44.macNodeId 44
param **.eNodeB45.macCellId 45
param **.eNodeB45.macNodeId 45
param **.eNodeB46.macCellId 46
param **.eNodeB46.macNodeId 46
param **.eNodeB47.macCellId 47
param **.eNodeB47.macNodeId 47
param **.eNodeB48.macCellId 48
param **.eNodeB48.macNodeId 48
param **.eNodeB49.macCellId 49
param **.eNodeB49.macNodeId 49
param **.eNodeB5.macCellId 5
param **.eNodeB5.macNodeId 5
param **.eNodeB50.macCellId 50
param **.eNodeB50.macNodeId 50
param **.eNodeB51.macCellId 51
param **.eNodeB51.macNodeId 51
param **.eNodeB52.macCellId 52
param **.eNodeB52.macNodeId 52
param **.eNodeB53.macCellId 53
param **.eNodeB53.macNodeId 53
param **.eNodeB54.macCellId 54
param **.eNodeB54.macNodeId 54
param **.eNodeB55.macCellId 55
param **.eNodeB55.macNodeId 55
param **.eNodeB56.macCellId 56
param **.eNodeB56.macNodeId 56
param **.eNodeB57.macCellId 57
param **.eNodeB57.macNodeId 57
param **.eNodeB58.macCellId 58
param **.eNodeB58.macNodeId 58
param **.eNodeB59.macCellId 59
param **.eNodeB59.macNodeId 59
param **.eNodeB6.macCellId 6
param **.eNodeB6.macNodeId 6
param **.eNodeB60.macCellId 60
param **.eNodeB60.macNodeId 60
param **.eNodeB61.macCellId 61
param **.eNodeB61.macNodeId 61
param **.eNodeB62.macCellId 62
param **.eNodeB62.macNodeId 62
param **.eNodeB63.macCellId 63
param **.eNodeB63.macNodeId 63
param **.eNodeB64.macCellId 64
param **.eNodeB64.macNodeId 64
param **.eNodeB65.macCellId 65
param **.eNodeB65.macNodeId 65
param **.eNodeB66.macCellId 66
param **.eNodeB66.macNodeId 66
param **.eNodeB7.macCellId 7
param **.eNodeB7.macNodeId 7
param **.eNodeB8.macCellId 8
param **.eNodeB8.macNodeId 8
param **.eNodeB9.macCellId 9
param **.eNodeB9.macNodeId 9
param **.eNodeBCount 66
param **.enableHandover true
param **.fbDelay 1
param **.feedbackComputation "xmldoc(\"config_channel.xml\")"
param **.feedbackGeneratorType "\"IDEAL\""
param **.feedbackType "\"ALLBANDS\""
param **.lteNic.phy.channelModel "xmldoc(\"config_channel.xml\")"
param **.maxHarqRtx 3
param **.numBands 25
param **.numUe 2
param **.rbAllocationType "\"localized\""
param **.routingRecorder.enabled false
param **.sctp.enableHeartbeats false
param **.sctp.nagleEnabled false
param *.annotations.draw true
param *.car[*].configurator.mcastGroups "\"224.0.0.10\""
param *.car[*].mobilityType "\"VeinsInetMobility\""
param *.car[*].numUdpApps 1
param *.car[*].udpApp[0].typename "\"VoIPReceiver\""
param *.eNodeB*.deployer.microCell true
param *.eNodeB*.txPower 10mw
param *.eNodeB*.x2App[*].server.localPort "5000 + ancestorIndex(1)"
param *.eNodeB1.numX2Apps 14
param *.eNodeB1.x2App[0].client.connectAddress "\"eNodeB22%x2ppp0\""
param *.eNodeB1.x2App[10].client.connectAddress "\"eNodeB45%x2ppp0\""
param *.eNodeB1.x2App[11].client.connectAddress "\"eNodeB54%x2ppp0\""
param *.eNodeB1.x2App[12].client.connectAddress "\"eNodeB58%x2ppp0\""
param *.eNodeB1.x2App[13].client.connectAddress "\"eNodeB66%x2ppp0\""
param *.eNodeB1.x2App[1].client.connectAddress "\"eNodeB41%x2ppp0\""
param *.eNodeB1.x2App[2].client.connectAddress "\"eNodeB50%x2ppp0\""
param *.eNodeB1.x2App[3].client.connectAddress "\"eNodeB14%x2ppp0\""
param *.eNodeB1.x2App[4].client.connectAddress "\"eNodeB43%x2ppp0\""
param *.eNodeB1.x2App[5].client.connectAddress "\"eNodeB6%x2ppp0\""
param *.eNodeB1.x2App[6].client.connectAddress "\"eNodeB11%x2ppp0\""
param *.eNodeB1.x2App[7].client.connectAddress "\"eNodeB27%x2ppp0\""
param *.eNodeB1.x2App[8].client.connectAddress "\"eNodeB37%x2ppp0\""
param *.eNodeB1.x2App[9].client.connectAddress "\"eNodeB42%x2ppp0\""
param *.eNodeB10.numX2Apps 13
param *.eNodeB10.x2App[0].client.connectAddress "\"eNodeB7%x2ppp3\""
param *.eNodeB10.x2App[10].client.connectAddress "\"eNodeB35%x2ppp3\""
param *.eNodeB10.x2App[11].client.connectAddress "\"eNodeB60%x2ppp1\""
param *.eNodeB10.x2App[12].client.connectAddress "\"eNodeB65%x2ppp0\""
param *.eNodeB10.x2App[1].client.connectAddress "\"eNodeB8%x2ppp4\""
param *.eNodeB10.x2App[2].client.connectAddress "\"eNodeB13%x2ppp3\""
param *.eNodeB10.x2App[3].client.connectAddress "\"eNodeB57%x2ppp2\""
param *.eNodeB10.x2App[4].client.connectAddress "\"eNodeB63%x2ppp2\""
param *.eNodeB10.x2App[5].client.connectAddress "\"eNodeB15%x2ppp0\""
param *.eNodeB10.x2App[6].client.connectAddress "\"eNodeB28%x2ppp1\""
param *.eNodeB10.x2App[7].client.connectAddress "\"eNodeB47%x2ppp5\""
param *.eNodeB10.x2App[8].client.connectAddress "\"eNodeB64%x2ppp2\""
param *.eNodeB10.x2App[9].client.connectAddress "\"eNodeB31%x2ppp4\""
param *.eNodeB11.numX2Apps 10
param *.eNodeB11.x2App[0].client.connectAddress "\"eNodeB22%x2ppp2\""
param *.eNodeB11.x2App[1].client.connectAddress "\"eNodeB39%x2ppp0\""
param *.eNodeB11.x2App[2].client.connectAddress "\"eNodeB40%x2ppp0\""
param *.eNodeB11.x2App[3].client.connectAddress "\"eNodeB54%x2ppp1\""
param *.eNodeB11.x2App[4].client.connectAddress "\"eNodeB18%x2ppp0\""
param *.eNodeB11.x2App[5].client.connectAddress "\"eNodeB43%x2ppp2\""
param *.eNodeB11.x2App[6].client.connectAddress "\"eNodeB1%x2ppp1\""
param *.eNodeB11.x2App[7].client.connectAddress "\"eNodeB14%x2ppp3\""
param *.eNodeB11.x2App[8].client.connectAddress "\"eNodeB41%x2ppp3\""
param *.eNodeB11.x2App[9].client.connectAddress "\"eNodeB66%x2ppp3\""
param *.eNodeB12.numX2Apps 9
param *.eNodeB12.x2App[0].client.connectAddress "\"eNodeB3%x2ppp0\""
param *.eNodeB12.x2App[1].client.connectAddress "\"eNodeB62%x2ppp1\""
param *.eNodeB12.x2App[2].client.connectAddress "\"eNodeB36%x2ppp0\""
param *.eNodeB12.x2App[3].client.connectAddress "\"eNodeB38%x2ppp1\""
param *.eNodeB12.x2App[4].client.connectAddress "\"eNodeB55%x2ppp2\""
param *.eNodeB12.x2App[5].client.connectAddress "\"eNodeB30%x2ppp3\""
param *.eNodeB12.x2App[6].client.connectAddress "\"eNodeB32%x2ppp4\""
param *.eNodeB12.x2App[7].client.connectAddress "\"eNodeB44%x2ppp2\""
param *.eNodeB12.x2App[8].client.connectAddress "\"eNodeB46%x2ppp3\""
param *.eNodeB13.numX2Apps 14
param *.eNodeB13.x2App[0].client.connectAddress "\"eNodeB8%x2ppp5\""
param *.eNodeB13.x2App[10].client.connectAddress "\"eNodeB47%x2ppp6\""
param *.eNodeB13.x2App[11].client.connectAddress "\"eNodeB60%x2ppp2\""
param *.eNodeB13.x2App[12].client.connectAddress "\"eNodeB64%x2ppp3\""
param *.eNodeB13.x2App[13].client.connectAddress "\"eNodeB65%x2ppp1\""
param *.eNodeB13.x2App[1].client.connectAddress "\"eNodeB10%x2ppp2\""
param *.eNodeB13.x2App[2].client.connectAddress "\"eNodeB31%x2ppp5\""
param *.eNodeB13.x2App[3].client.connectAddress "\"eNodeB63%x2ppp3\""
param *.eNodeB13.x2App[4].client.connectAddress "\"eNodeB57%x2ppp3\""
param *.eNodeB13.x2App[5].client.connectAddress "\"eNodeB2%x2ppp4\""
param *.eNodeB13.x2App[6].client.connectAddress "\"eNodeB7%x2ppp4\""
param *.eNodeB13.x2App[7].client.connectAddress "\"eNodeB19%x2ppp1\""
param *.eNodeB13.x2App[8].client.connectAddress "\"eNodeB28%x2ppp2\""
param *.eNodeB13.x2App[9].client.connectAddress "\"eNodeB35%x2ppp4\""
param *.eNodeB14.numX2Apps 17
param *.eNodeB14.x2App[0].client.connectAddress "\"eNodeB1%x2ppp2\""
param *.eNodeB14.x2App[10].client.connectAddress "\"eNodeB11%x2ppp1\""
param *.eNodeB14.x2App[11].client.connectAddress "\"eNodeB34%x2ppp4\""
param *.eNodeB14.x2App[12].client.connectAddress "\"eNodeB37%x2ppp2\""
param *.eNodeB14.x2App[13].client.connectAddress "\"eNodeB40%x2ppp1\""
param *.eNodeB14.x2App[14].client.connectAddress "\"eNodeB42%x2ppp2\""
param *.eNodeB14.x2App[15].client.connectAddress "\"eNodeB43%x2ppp3\""
param *.eNodeB14.x2App[16].client.connectAddress "\"eNodeB50%x2ppp2\""
param *.eNodeB14.x2App[1].client.connectAddress "\"eNodeB41%x2ppp4\""
param *.eNodeB14.x2App[2].client.connectAddress "\"eNodeB66%x2ppp4\""
param *.eNodeB14.x2App[3].client.connectAddress "\"eNodeB22%x2ppp3\""
param *.eNodeB14.x2App[4].client.connectAddress "\"eNodeB27%x2ppp4\""
param *.eNodeB14.x2App[5].client.connectAddress "\"eNodeB45%x2ppp3\""
param *.eNodeB14.x2App[6].client.connectAddress "\"eNodeB54%x2ppp2\""
param *.eNodeB14.x2App[7].client.connectAddress "\"eNodeB58%x2ppp3\""
param *.eNodeB14.x2App[8].client.connectAddress "\"eNodeB6%x2ppp1\""
param *.eNodeB14.x2App[9].client.connectAddress "\"eNodeB9%x2ppp3\""
param *.eNodeB15.numX2Apps 9
param *.eNodeB15.x2App[0].client.connectAddress "\"eNodeB10%x2ppp3\""
param *.eNodeB15.x2App[1].client.connectAddress "\"eNodeB28%x2ppp3\""
param *.eNodeB15.x2App[2].client.connectAddress "\"eNodeB60%x2ppp3\""
param *.eNodeB15.x2App[3].client.connectAddress "\"eNodeB64%x2ppp4\""
param *.eNodeB15.x2App[4].client.connectAddress "\"eNodeB24%x2ppp0\""
param *.eNodeB15.x2App[5].client.connectAddress "\"eNodeB57%x2ppp4\""
param *.eNodeB15.x2App[6].client.connectAddress "\"eNodeB59%x2ppp0\""
param *.eNodeB15.x2App[7].client.connectAddress "\"eNodeB16%x2ppp1\""
param *.eNodeB15.x2App[8].client.connectAddress "\"eNodeB65%x2ppp2\""
param *.eNodeB16.numX2Apps 7
param *.eNodeB16.x2App[0].client.connectAddress "\"eNodeB7%x2ppp5\""
param *.eNodeB16.x2App[1].client.connectAddress "\"eNodeB15%x2ppp1\""
param *.eNodeB16.x2App[2].client.connectAddress "\"eNodeB21%x2ppp0\""
param *.eNodeB16.x2App[3].client.connectAddress "\"eNodeB23%x2ppp1\""
param *.eNodeB16.x2App[4].client.connectAddress "\"eNodeB59%x2ppp1\""
param *.eNodeB16.x2App[5].client.connectAddress "\"eNodeB61%x2ppp0\""
param *.eNodeB16.x2App[6].client.connectAddress "\"eNodeB64%x2ppp5\""
param *.eNodeB17.numX2Apps 8
param *.eNodeB17.x2App[0].client.connectAddress "\"eNodeB4%x2ppp0\""
param *.eNodeB17.x2App[1].client.connectAddress "\"eNodeB20%x2ppp1\""
param *.eNodeB17.x2App[2].client.connectAddress "\"eNodeB49%x2ppp1\""
param *.eNodeB17.x2App[3].client.connectAddress "\"eNodeB56%x2ppp1\""
param *.eNodeB17.x2App[4].client.connectAddress "\"eNodeB29%x2ppp2\""
param *.eNodeB17.x2App[5].client.connectAddress "\"eNodeB51%x2ppp1\""
param *.eNodeB17.x2App[6].client.connectAddress "\"eNodeB52%x2ppp2\""
param *.eNodeB17.x2App[7].client.connectAddress "\"eNodeB55%x2ppp3\""
param *.eNodeB18.numX2Apps 8
param *.eNodeB18.x2App[0].client.connectAddress "\"eNodeB11%x2ppp2\""
param *.eNodeB18.x2App[1].client.connectAddress "\"eNodeB19%x2ppp2\""
param *.eNodeB18.x2App[2].client.connectAddress "\"eNodeB39%x2ppp1\""
param *.eNodeB18.x2App[3].client.connectAddress "\"eNodeB40%x2ppp2\""
param *.eNodeB18.x2App[4].client.connectAddress "\"eNodeB48%x2ppp0\""
param *.eNodeB18.x2App[5].client.connectAddress "\"eNodeB65%x2ppp3\""
param *.eNodeB18.x2App[6].client.connectAddress "\"eNodeB35%x2ppp5\""
param *.eNodeB18.x2App[7].client.connectAddress "\"eNodeB54%x2ppp3\""
param *.eNodeB19.numX2Apps 11
param *.eNodeB19.x2App[0].client.connectAddress "\"eNodeB9%x2ppp4\""
param *.eNodeB19.x2App[10].client.connectAddress "\"eNodeB31%x2ppp6\""
param *.eNodeB19.x2App[1].client.connectAddress "\"eNodeB18%x2ppp1\""
param *.eNodeB19.x2App[2].client.connectAddress "\"eNodeB35%x2ppp6\""
param *.eNodeB19.x2App[3].client.connectAddress "\"eNodeB48%x2ppp1\""
param *.eNodeB19.x2App[4].client.connectAddress "\"eNodeB40%x2ppp3\""
param *.eNodeB19.x2App[5].client.connectAddress "\"eNodeB54%x2ppp4\""
param *.eNodeB19.x2App[6].client.connectAddress "\"eNodeB58%x2ppp4\""
param *.eNodeB19.x2App[7].client.connectAddress "\"eNodeB63%x2ppp4\""
param *.eNodeB19.x2App[8].client.connectAddress "\"eNodeB66%x2ppp5\""
param *.eNodeB19.x2App[9].client.connectAddress "\"eNodeB13%x2ppp4\""
param *.eNodeB2.numX2Apps 12
param *.eNodeB2.x2App[0].client.connectAddress "\"eNodeB5%x2ppp0\""
param *.eNodeB2.x2App[10].client.connectAddress "\"eNodeB13%x2ppp0\""
param *.eNodeB2.x2App[11].client.connectAddress "\"eNodeB34%x2ppp0\""
param *.eNodeB2.x2App[1].client.connectAddress "\"eNodeB7%x2ppp0\""
param *.eNodeB2.x2App[2].client.connectAddress "\"eNodeB32%x2ppp0\""
param *.eNodeB2.x2App[3].client.connectAddress "\"eNodeB8%x2ppp0\""
param *.eNodeB2.x2App[4].client.connectAddress "\"eNodeB9%x2ppp0\""
param *.eNodeB2.x2App[5].client.connectAddress "\"eNodeB25%x2ppp0\""
param *.eNodeB2.x2App[6].client.connectAddress "\"eNodeB30%x2ppp0\""
param *.eNodeB2.x2App[7].client.connectAddress "\"eNodeB31%x2ppp0\""
param *.eNodeB2.x2App[8].client.connectAddress "\"eNodeB46%x2ppp0\""
param *.eNodeB2.x2App[9].client.connectAddress "\"eNodeB47%x2ppp0\""
param *.eNodeB20.numX2Apps 7
param *.eNodeB20.x2App[0].client.connectAddress "\"eNodeB4%x2ppp1\""
param *.eNodeB20.x2App[1].client.connectAddress "\"eNodeB17%x2ppp1\""
param *.eNodeB20.x2App[2].client.connectAddress "\"eNodeB49%x2ppp2\""
param *.eNodeB20.x2App[3].client.connectAddress "\"eNodeB25%x2ppp2\""
param *.eNodeB20.x2App[4].client.connectAddress "\"eNodeB46%x2ppp4\""
param *.eNodeB20.x2App[5].client.connectAddress "\"eNodeB52%x2ppp3\""
param *.eNodeB20.x2App[6].client.connectAddress "\"eNodeB55%x2ppp4\""
param *.eNodeB21.numX2Apps 4
param *.eNodeB21.x2App[0].client.connectAddress "\"eNodeB16%x2ppp2\""
param *.eNodeB21.x2App[1].client.connectAddress "\"eNodeB23%x2ppp2\""
param *.eNodeB21.x2App[2].client.connectAddress "\"eNodeB36%x2ppp1\""
param *.eNodeB21.x2App[3].client.connectAddress "\"eNodeB38%x2ppp2\""
param *.eNodeB22.numX2Apps 14
param *.eNodeB22.x2App[0].client.connectAddress "\"eNodeB1%x2ppp3\""
param *.eNodeB22.x2App[10].client.connectAddress "\"eNodeB42%x2ppp3\""
param *.eNodeB22.x2App[11].client.connectAddress "\"eNodeB45%x2ppp4\""
param *.eNodeB22.x2App[12].client.connectAddress "\"eNodeB50%x2ppp3\""
param *.eNodeB22.x2App[13].client.connectAddress "\"eNodeB58%x2ppp5\""
param *.eNodeB22.x2App[1].client.connectAddress "\"eNodeB11%x2ppp3\""
param *.eNodeB22.x2App[2].client.connectAddress "\"eNodeB14%x2ppp4\""
param *.eNodeB22.x2App[3].client.connectAddress "\"eNodeB54%x2ppp5\""
param *.eNodeB22.x2App[4].client.connectAddress "\"eNodeB41%x2ppp5\""
param *.eNodeB22.x2App[5].client.connectAddress "\"eNodeB43%x2ppp4\""
param *.eNodeB22.x2App[6].client.connectAddress "\"eNodeB66%x2ppp6\""
param *.eNodeB22.x2App[7].client.connectAddress "\"eNodeB6%x2ppp2\""
param *.eNodeB22.x2App[8].client.connectAddress "\"eNodeB37%x2ppp3\""
param *.eNodeB22.x2App[9].client.connectAddress "\"eNodeB40%x2ppp4\""
param *.eNodeB23.numX2Apps 7
param *.eNodeB23.x2App[0].client.connectAddress "\"eNodeB7%x2ppp6\""
param *.eNodeB23.x2App[1].client.connectAddress "\"eNodeB16%x2ppp3\""
param *.eNodeB23.x2App[2].client.connectAddress "\"eNodeB21%x2ppp1\""
param *.eNodeB23.x2App[3].client.connectAddress "\"eNodeB36%x2ppp2\""
param *.eNodeB23.x2App[4].client.connectAddress "\"eNodeB38%x2ppp3\""
param *.eNodeB23.x2App[5].client.connectAddress "\"eNodeB44%x2ppp3\""
param *.eNodeB23.x2App[6].client.connectAddress "\"eNodeB64%x2ppp6\""
param *.eNodeB24.numX2Apps 7
param *.eNodeB24.x2App[0].client.connectAddress "\"eNodeB15%x2ppp2\""
param *.eNodeB24.x2App[1].client.connectAddress "\"eNodeB59%x2ppp2\""
param *.eNodeB24.x2App[2].client.connectAddress "\"eNodeB60%x2ppp4\""
param *.eNodeB24.x2App[3].client.connectAddress "\"eNodeB65%x2ppp4\""
param *.eNodeB24.x2App[4].client.connectAddress "\"eNodeB28%x2ppp4\""
param *.eNodeB24.x2App[5].client.connectAddress "\"eNodeB39%x2ppp2\""
param *.eNodeB24.x2App[6].client.connectAddress "\"eNodeB64%x2ppp7\""
param *.eNodeB25.numX2Apps 12
param *.eNodeB25.x2App[0].client.connectAddress "\"eNodeB2%x2ppp5\""
param *.eNodeB25.x2App[10].client.connectAddress "\"eNodeB55%x2ppp5\""
param *.eNodeB25.x2App[11].client.connectAddress "\"eNodeB29%x2ppp3\""
param *.eNodeB25.x2App[1].client.connectAddress "\"eNodeB5%x2ppp4\""
param *.eNodeB25.x2App[2].client.connectAddress "\"eNodeB20%x2ppp2\""
param *.eNodeB25.x2App[3].client.connectAddress "\"eNodeB46%x2ppp5\""
param *.eNodeB25.x2App[4].client.connectAddress "\"eNodeB52%x2ppp4\""
param *.eNodeB25.x2App[5].client.connectAddress "\"eNodeB32%x2ppp5\""
param *.eNodeB25.x2App[6].client.connectAddress "\"eNodeB34%x2ppp5\""
param *.eNodeB25.x2App[7].client.connectAddress "\"eNodeB49%x2ppp3\""
param *.eNodeB25.x2App[8].client.connectAddress "\"eNodeB51%x2ppp2\""
param *.eNodeB25.x2App[9].client.connectAddress "\"eNodeB53%x2ppp3\""
param *.eNodeB26.numX2Apps 3
param *.eNodeB26.x2App[0].client.connectAddress "\"eNodeB39%x2ppp3\""
param *.eNodeB26.x2App[1].client.connectAddress "\"eNodeB59%x2ppp3\""
param *.eNodeB26.x2App[2].client.connectAddress "\"eNodeB61%x2ppp1\""
param *.eNodeB27.numX2Apps 15
param *.eNodeB27.x2App[0].client.connectAddress "\"eNodeB5%x2ppp5\""
param *.eNodeB27.x2App[10].client.connectAddress "\"eNodeB53%x2ppp4\""
param *.eNodeB27.x2App[11].client.connectAddress "\"eNodeB66%x2ppp7\""
param *.eNodeB27.x2App[12].client.connectAddress "\"eNodeB1%x2ppp4\""
param *.eNodeB27.x2App[13].client.connectAddress "\"eNodeB37%x2ppp4\""
param *.eNodeB27.x2App[14].client.connectAddress "\"eNodeB52%x2ppp5\""
param *.eNodeB27.x2App[1].client.connectAddress "\"eNodeB6%x2ppp3\""
param *.eNodeB27.x2App[2].client.connectAddress "\"eNodeB9%x2ppp5\""
param *.eNodeB27.x2App[3].client.connectAddress "\"eNodeB14%x2ppp5\""
param *.eNodeB27.x2App[4].client.connectAddress "\"eNodeB34%x2ppp6\""
param *.eNodeB27.x2App[5].client.connectAddress "\"eNodeB58%x2ppp6\""
param *.eNodeB27.x2App[6].client.connectAddress "\"eNodeB29%x2ppp4\""
param *.eNodeB27.x2App[7].client.connectAddress "\"eNodeB41%x2ppp6\""
param *.eNodeB27.x2App[8].client.connectAddress "\"eNodeB45%x2ppp5\""
param *.eNodeB27.x2App[9].client.connectAddress "\"eNodeB50%x2ppp4\""
param *.eNodeB28.numX2Apps 13
param *.eNodeB28.x2App[0].client.connectAddress "\"eNodeB10%x2ppp4\""
param *.eNodeB28.x2App[10].client.connectAddress "\"eNodeB59%x2ppp4\""
param *.eNodeB28.x2App[11].client.connectAddress "\"eNodeB63%x2ppp5\""
param *.eNodeB28.x2App[12].client.connectAddress "\"eNodeB65%x2ppp5\""
param *.eNodeB28.x2App[1].client.connectAddress "\"eNodeB15%x2ppp3\""
param *.eNodeB28.x2App[2].client.connectAddress "\"eNodeB24%x2ppp1\""
param *.eNodeB28.x2App[3].client.connectAddress "\"eNodeB60%x2ppp5\""
param *.eNodeB28.x2App[4].client.connectAddress "\"eNodeB64%x2ppp8\""
param *.eNodeB28.x2App[5].client.connectAddress "\"eNodeB57%x2ppp5\""
param *.eNodeB28.x2App[6].client.connectAddress "\"eNodeB8%x2ppp6\""
param *.eNodeB28.x2App[7].client.connectAddress "\"eNodeB13%x2ppp5\""
param *.eNodeB28.x2App[8].client.connectAddress "\"eNodeB31%x2ppp7\""
param *.eNodeB28.x2App[9].client.connectAddress "\"eNodeB47%x2ppp7\""
param *.eNodeB29.numX2Apps 12
param *.eNodeB29.x2App[0].client.connectAddress "\"eNodeB5%x2ppp6\""
param *.eNodeB29.x2App[10].client.connectAddress "\"eNodeB34%x2ppp7\""
param *.eNodeB29.x2App[11].client.connectAddress "\"eNodeB45%x2ppp6\""
param *.eNodeB29.x2App[1].client.connectAddress "\"eNodeB6%x2ppp4\""
param *.eNodeB29.x2App[2].client.connectAddress "\"eNodeB27%x2ppp5\""
param *.eNodeB29.x2App[3].client.connectAddress "\"eNodeB51%x2ppp3\""
param *.eNodeB29.x2App[4].client.connectAddress "\"eNodeB52%x2ppp6\""
param *.eNodeB29.x2App[5].client.connectAddress "\"eNodeB53%x2ppp5\""
param *.eNodeB29.x2App[6].client.connectAddress "\"eNodeB33%x2ppp1\""
param *.eNodeB29.x2App[7].client.connectAddress "\"eNodeB49%x2ppp4\""
param *.eNodeB29.x2App[8].client.connectAddress "\"eNodeB17%x2ppp2\""
param *.eNodeB29.x2App[9].client.connectAddress "\"eNodeB25%x2ppp3\""
param *.eNodeB3.numX2Apps 8
param *.eNodeB3.x2App[0].client.connectAddress "\"eNodeB12%x2ppp0\""
param *.eNodeB3.x2App[1].client.connectAddress "\"eNodeB46%x2ppp1\""
param *.eNodeB3.x2App[2].client.connectAddress "\"eNodeB62%x2ppp0\""
param *.eNodeB3.x2App[3].client.connectAddress "\"eNodeB30%x2ppp1\""
param *.eNodeB3.x2App[4].client.connectAddress "\"eNodeB32%x2ppp1\""
param *.eNodeB3.x2App[5].client.connectAddress "\"eNodeB55%x2ppp0\""
param *.eNodeB3.x2App[6].client.connectAddress "\"eNodeB38%x2ppp0\""
param *.eNodeB3.x2App[7].client.connectAddress "\"eNodeB44%x2ppp0\""
param *.eNodeB30.numX2Apps 10
param *.eNodeB30.x2App[0].client.connectAddress "\"eNodeB2%x2ppp6\""
param *.eNodeB30.x2App[1].client.connectAddress "\"eNodeB3%x2ppp1\""
param *.eNodeB30.x2App[2].client.connectAddress "\"eNodeB7%x2ppp7\""
param *.eNodeB30.x2App[3].client.connectAddress "\"eNodeB32%x2ppp6\""
param *.eNodeB30.x2App[4].client.connectAddress "\"eNodeB62%x2ppp2\""
param *.eNodeB30.x2App[5].client.connectAddress "\"eNodeB38%x2ppp4\""
param *.eNodeB30.x2App[6].client.connectAddress "\"eNodeB44%x2ppp4\""
param *.eNodeB30.x2App[7].client.connectAddress "\"eNodeB46%x2ppp6\""
param *.eNodeB30.x2App[8].client.connectAddress "\"eNodeB12%x2ppp1\""
param *.eNodeB30.x2App[9].client.connectAddress "\"eNodeB55%x2ppp6\""
param *.eNodeB31.numX2Apps 16
param *.eNodeB31.x2App[0].client.connectAddress "\"eNodeB2%x2ppp7\""
param *.eNodeB31.x2App[10].client.connectAddress "\"eNodeB47%x2ppp8\""
param *.eNodeB31.x2App[11].client.connectAddress "\"eNodeB48%x2ppp2\""
param *.eNodeB31.x2App[12].client.connectAddress "\"eNodeB57%x2ppp6\""
param *.eNodeB31.x2App[13].client.connectAddress "\"eNodeB60%x2ppp6\""
param *.eNodeB31.x2App[14].client.connectAddress "\"eNodeB64%x2ppp9\""
param *.eNodeB31.x2App[15].client.connectAddress "\"eNodeB65%x2ppp6\""
param *.eNodeB31.x2App[1].client.connectAddress "\"eNodeB8%x2ppp7\""
param *.eNodeB31.x2App[2].client.connectAddress "\"eNodeB9%x2ppp6\""
param *.eNodeB31.x2App[3].client.connectAddress "\"eNodeB13%x2ppp6\""
param *.eNodeB31.x2App[4].client.connectAddress "\"eNodeB63%x2ppp6\""
param *.eNodeB31.x2App[5].client.connectAddress "\"eNodeB35%x2ppp7\""
param *.eNodeB31.x2App[6].client.connectAddress "\"eNodeB7%x2ppp8\""
param *.eNodeB31.x2App[7].client.connectAddress "\"eNodeB10%x2ppp5\""
param *.eNodeB31.x2App[8].client.connectAddress "\"eNodeB19%x2ppp3\""
param *.eNodeB31.x2App[9].client.connectAddress "\"eNodeB28%x2ppp5\""
param *.eNodeB32.numX2Apps 12
param *.eNodeB32.x2App[0].client.connectAddress "\"eNodeB2%x2ppp8\""
param *.eNodeB32.x2App[10].client.connectAddress "\"eNodeB44%x2ppp5\""
param *.eNodeB32.x2App[11].client.connectAddress "\"eNodeB55%x2ppp7\""
param *.eNodeB32.x2App[1].client.connectAddress "\"eNodeB3%x2ppp2\""
param *.eNodeB32.x2App[2].client.connectAddress "\"eNodeB5%x2ppp7\""
param *.eNodeB32.x2App[3].client.connectAddress "\"eNodeB7%x2ppp9\""
param *.eNodeB32.x2App[4].client.connectAddress "\"eNodeB25%x2ppp4\""
param *.eNodeB32.x2App[5].client.connectAddress "\"eNodeB30%x2ppp4\""
param *.eNodeB32.x2App[6].client.connectAddress "\"eNodeB46%x2ppp7\""
param *.eNodeB32.x2App[7].client.connectAddress "\"eNodeB62%x2ppp3\""
param *.eNodeB32.x2App[8].client.connectAddress "\"eNodeB12%x2ppp2\""
param *.eNodeB32.x2App[9].client.connectAddress "\"eNodeB38%x2ppp5\""
param *.eNodeB33.numX2Apps 10
param *.eNodeB33.x2App[0].client.connectAddress "\"eNodeB6%x2ppp5\""
param *.eNodeB33.x2App[1].client.connectAddress "\"eNodeB29%x2ppp5\""
param *.eNodeB33.x2App[2].client.connectAddress "\"eNodeB51%x2ppp4\""
param *.eNodeB33.x2App[3].client.connectAddress "\"eNodeB37%x2ppp5\""
param *.eNodeB33.x2App[4].client.connectAddress "\"eNodeB42%x2ppp4\""
param *.eNodeB33.x2App[5].client.connectAddress "\"eNodeB53%x2ppp6\""
param *.eNodeB33.x2App[6].client.connectAddress "\"eNodeB56%x2ppp2\""
param *.eNodeB33.x2App[7].client.connectAddress "\"eNodeB45%x2ppp7\""
param *.eNodeB33.x2App[8].client.connectAddress "\"eNodeB50%x2ppp5\""
param *.eNodeB33.x2App[9].client.connectAddress "\"eNodeB52%x2ppp7\""
param *.eNodeB34.numX2Apps 17
param *.eNodeB34.x2App[0].client.connectAddress "\"eNodeB5%x2ppp8\""
param *.eNodeB34.x2App[10].client.connectAddress "\"eNodeB29%x2ppp6\""
param *.eNodeB34.x2App[11].client.connectAddress "\"eNodeB37%x2ppp6\""
param *.eNodeB34.x2App[12].client.connectAddress "\"eNodeB41%x2ppp7\""
param *.eNodeB34.x2App[13].client.connectAddress "\"eNodeB50%x2ppp6\""
param *.eNodeB34.x2App[14].client.connectAddress "\"eNodeB51%x2ppp5\""
param *.eNodeB34.x2App[15].client.connectAddress "\"eNodeB58%x2ppp7\""
param *.eNodeB34.x2App[16].client.connectAddress "\"eNodeB66%x2ppp8\""
param *.eNodeB34.x2App[1].client.connectAddress "\"eNodeB6%x2ppp6\""
param *.eNodeB34.x2App[2].client.connectAddress "\"eNodeB9%x2ppp7\""
param *.eNodeB34.x2App[3].client.connectAddress "\"eNodeB25%x2ppp5\""
param *.eNodeB34.x2App[4].client.connectAddress "\"eNodeB27%x2ppp6\""
param *.eNodeB34.x2App[5].client.connectAddress "\"eNodeB53%x2ppp7\""
param *.eNodeB34.x2App[6].client.connectAddress "\"eNodeB45%x2ppp8\""
param *.eNodeB34.x2App[7].client.connectAddress "\"eNodeB52%x2ppp8\""
param *.eNodeB34.x2App[8].client.connectAddress "\"eNodeB2%x2ppp9\""
param *.eNodeB34.x2App[9].client.connectAddress "\"eNodeB14%x2ppp6\""
param *.eNodeB35.numX2Apps 15
param *.eNodeB35.x2App[0].client.connectAddress "\"eNodeB8%x2ppp8\""
param *.eNodeB35.x2App[10].client.connectAddress "\"eNodeB66%x2ppp9\""
param *.eNodeB35.x2App[11].client.connectAddress "\"eNodeB7%x2ppp10\""
param *.eNodeB35.x2App[12].client.connectAddress "\"eNodeB10%x2ppp6\""
param *.eNodeB35.x2App[13].client.connectAddress "\"eNodeB13%x2ppp7\""
param *.eNodeB35.x2App[14].client.connectAddress "\"eNodeB18%x2ppp2\""
param *.eNodeB35.x2App[1].client.connectAddress "\"eNodeB9%x2ppp8\""
param *.eNodeB35.x2App[2].client.connectAddress "\"eNodeB19%x2ppp4\""
param *.eNodeB35.x2App[3].client.connectAddress "\"eNodeB31%x2ppp8\""
param *.eNodeB35.x2App[4].client.connectAddress "\"eNodeB63%x2ppp7\""
param *.eNodeB35.x2App[5].client.connectAddress "\"eNodeB47%x2ppp9\""
param *.eNodeB35.x2App[6].client.connectAddress "\"eNodeB48%x2ppp3\""
param *.eNodeB35.x2App[7].client.connectAddress "\"eNodeB57%x2ppp7\""
param *.eNodeB35.x2App[8].client.connectAddress "\"eNodeB58%x2ppp8\""
param *.eNodeB35.x2App[9].client.connectAddress "\"eNodeB65%x2ppp7\""
param *.eNodeB36.numX2Apps 6
param *.eNodeB36.x2App[0].client.connectAddress "\"eNodeB12%x2ppp3\""
param *.eNodeB36.x2App[1].client.connectAddress "\"eNodeB21%x2ppp2\""
param *.eNodeB36.x2App[2].client.connectAddress "\"eNodeB23%x2ppp3\""
param *.eNodeB36.x2App[3].client.connectAddress "\"eNodeB38%x2ppp6\""
param *.eNodeB36.x2App[4].client.connectAddress "\"eNodeB62%x2ppp4\""
param *.eNodeB36.x2App[5].client.connectAddress "\"eNodeB44%x2ppp6\""
param *.eNodeB37.numX2Apps 14
param *.eNodeB37.x2App[0].client.connectAddress "\"eNodeB6%x2ppp7\""
param *.eNodeB37.x2App[10].client.connectAddress "\"eNodeB34%x2ppp8\""
param *.eNodeB37.x2App[11].client.connectAddress "\"eNodeB43%x2ppp5\""
param *.eNodeB37.x2App[12].client.connectAddress "\"eNodeB53%x2ppp8\""
param *.eNodeB37.x2App[13].client.connectAddress "\"eNodeB66%x2ppp10\""
param *.eNodeB37.x2App[1].client.connectAddress "\"eNodeB33%x2ppp2\""
param *.eNodeB37.x2App[2].client.connectAddress "\"eNodeB42%x2ppp5\""
param *.eNodeB37.x2App[3].client.connectAddress "\"eNodeB45%x2ppp9\""
param *.eNodeB37.x2App[4].client.connectAddress "\"eNodeB41%x2ppp8\""
param *.eNodeB37.x2App[5].client.connectAddress "\"eNodeB50%x2ppp7\""
param *.eNodeB37.x2App[6].client.connectAddress "\"eNodeB1%x2ppp5\""
param *.eNodeB37.x2App[7].client.connectAddress "\"eNodeB14%x2ppp7\""
param *.eNodeB37.x2App[8].client.connectAddress "\"eNodeB22%x2ppp4\""
param *.eNodeB37.x2App[9].client.connectAddress "\"eNodeB27%x2ppp7\""
param *.eNodeB38.numX2Apps 9
param *.eNodeB38.x2App[0].client.connectAddress "\"eNodeB12%x2ppp4\""
param *.eNodeB38.x2App[1].client.connectAddress "\"eNodeB23%x2ppp4\""
param *.eNodeB38.x2App[2].client.connectAddress "\"eNodeB30%x2ppp5\""
param *.eNodeB38.x2App[3].client.connectAddress "\"eNodeB36%x2ppp3\""
param *.eNodeB38.x2App[4].client.connectAddress "\"eNodeB44%x2ppp7\""
param *.eNodeB38.x2App[5].client.connectAddress "\"eNodeB62%x2ppp5\""
param *.eNodeB38.x2App[6].client.connectAddress "\"eNodeB3%x2ppp3\""
param *.eNodeB38.x2App[7].client.connectAddress "\"eNodeB21%x2ppp3\""
param *.eNodeB38.x2App[8].client.connectAddress "\"eNodeB32%x2ppp7\""
param *.eNodeB39.numX2Apps 8
param *.eNodeB39.x2App[0].client.connectAddress "\"eNodeB11%x2ppp4\""
param *.eNodeB39.x2App[1].client.connectAddress "\"eNodeB18%x2ppp3\""
param *.eNodeB39.x2App[2].client.connectAddress "\"eNodeB24%x2ppp2\""
param *.eNodeB39.x2App[3].client.connectAddress "\"eNodeB26%x2ppp0\""
param *.eNodeB39.x2App[4].client.connectAddress "\"eNodeB40%x2ppp5\""
param *.eNodeB39.x2App[5].client.connectAddress "\"eNodeB59%x2ppp5\""
param *.eNodeB39.x2App[6].client.connectAddress "\"eNodeB65%x2ppp8\""
param *.eNodeB39.x2App[7].client.connectAddress "\"eNodeB61%x2ppp2\""
param *.eNodeB4.numX2Apps 5
param *.eNodeB4.x2App[0].client.connectAddress "\"eNodeB17%x2ppp0\""
param *.eNodeB4.x2App[1].client.connectAddress "\"eNodeB20%x2ppp0\""
param *.eNodeB4.x2App[2].client.connectAddress "\"eNodeB55%x2ppp1\""
param *.eNodeB4.x2App[3].client.connectAddress "\"eNodeB56%x2ppp0\""
param *.eNodeB4.x2App[4].client.connectAddress "\"eNodeB49%x2ppp0\""
param *.eNodeB40.numX2Apps 10
param *.eNodeB40.x2App[0].client.connectAddress "\"eNodeB11%x2ppp5\""
param *.eNodeB40.x2App[1].client.connectAddress "\"eNodeB18%x2ppp4\""
param *.eNodeB40.x2App[2].client.connectAddress "\"eNodeB19%x2ppp5\""
param *.eNodeB40.x2App[3].client.connectAddress "\"eNodeB39%x2ppp4\""
param *.eNodeB40.x2App[4].client.connectAddress "\"eNodeB54%x2ppp6\""
param *.eNodeB40.x2App[5].client.connectAddress "\"eNodeB58%x2ppp9\""
param *.eNodeB40.x2App[6].client.connectAddress "\"eNodeB66%x2ppp11\""
param *.eNodeB40.x2App[7].client.connectAddress "\"eNodeB14%x2ppp8\""
param *.eNodeB40.x2App[8].client.connectAddress "\"eNodeB22%x2ppp5\""
param *.eNodeB40.x2App[9].client.connectAddress "\"eNodeB48%x2ppp4\""
param *.eNodeB41.numX2Apps 16
param *.eNodeB41.x2App[0].client.connectAddress "\"eNodeB1%x2ppp6\""
param *.eNodeB41.x2App[10].client.connectAddress "\"eNodeB9%x2ppp9\""
param *.eNodeB41.x2App[11].client.connectAddress "\"eNodeB11%x2ppp6\""
param *.eNodeB41.x2App[12].client.connectAddress "\"eNodeB34%x2ppp9\""
param *.eNodeB41.x2App[13].client.connectAddress "\"eNodeB42%x2ppp6\""
param *.eNodeB41.x2App[14].client.connectAddress "\"eNodeB43%x2ppp6\""
param *.eNodeB41.x2App[15].client.connectAddress "\"eNodeB54%x2ppp7\""
param *.eNodeB41.x2App[1].client.connectAddress "\"eNodeB14%x2ppp9\""
param *.eNodeB41.x2App[2].client.connectAddress "\"eNodeB22%x2ppp6\""
param *.eNodeB41.x2App[3].client.connectAddress "\"eNodeB27%x2ppp8\""
param *.eNodeB41.x2App[4].client.connectAddress "\"eNodeB37%x2ppp7\""
param *.eNodeB41.x2App[5].client.connectAddress "\"eNodeB50%x2ppp8\""
param *.eNodeB41.x2App[6].client.connectAddress "\"eNodeB45%x2ppp10\""
param *.eNodeB41.x2App[7].client.connectAddress "\"eNodeB58%x2ppp10\""
param *.eNodeB41.x2App[8].client.connectAddress "\"eNodeB66%x2ppp12\""
param *.eNodeB41.x2App[9].client.connectAddress "\"eNodeB6%x2ppp8\""
param *.eNodeB42.numX2Apps 11
param *.eNodeB42.x2App[0].client.connectAddress "\"eNodeB6%x2ppp9\""
param *.eNodeB42.x2App[10].client.connectAddress "\"eNodeB66%x2ppp13\""
param *.eNodeB42.x2App[1].client.connectAddress "\"eNodeB33%x2ppp3\""
param *.eNodeB42.x2App[2].client.connectAddress "\"eNodeB37%x2ppp8\""
param *.eNodeB42.x2App[3].client.connectAddress "\"eNodeB50%x2ppp9\""
param *.eNodeB42.x2App[4].client.connectAddress "\"eNodeB43%x2ppp7\""
param *.eNodeB42.x2App[5].client.connectAddress "\"eNodeB1%x2ppp7\""
param *.eNodeB42.x2App[6].client.connectAddress "\"eNodeB14%x2ppp10\""
param *.eNodeB42.x2App[7].client.connectAddress "\"eNodeB22%x2ppp7\""
param *.eNodeB42.x2App[8].client.connectAddress "\"eNodeB41%x2ppp9\""
param *.eNodeB42.x2App[9].client.connectAddress "\"eNodeB45%x2ppp11\""
param *.eNodeB43.numX2Apps 12
param *.eNodeB43.x2App[0].client.connectAddress "\"eNodeB1%x2ppp8\""
param *.eNodeB43.x2App[10].client.connectAddress "\"eNodeB54%x2ppp8\""
param *.eNodeB43.x2App[11].client.connectAddress "\"eNodeB66%x2ppp14\""
param *.eNodeB43.x2App[1].client.connectAddress "\"eNodeB11%x2ppp7\""
param *.eNodeB43.x2App[2].client.connectAddress "\"eNodeB22%x2ppp8\""
param *.eNodeB43.x2App[3].client.connectAddress "\"eNodeB42%x2ppp7\""
param *.eNodeB43.x2App[4].client.connectAddress "\"eNodeB50%x2ppp10\""
param *.eNodeB43.x2App[5].client.connectAddress "\"eNodeB6%x2ppp10\""
param *.eNodeB43.x2App[6].client.connectAddress "\"eNodeB14%x2ppp11\""
param *.eNodeB43.x2App[7].client.connectAddress "\"eNodeB37%x2ppp9\""
param *.eNodeB43.x2App[8].client.connectAddress "\"eNodeB41%x2ppp10\""
param *.eNodeB43.x2App[9].client.connectAddress "\"eNodeB45%x2ppp12\""
param *.eNodeB44.numX2Apps 9
param *.eNodeB44.x2App[0].client.connectAddress "\"eNodeB7%x2ppp11\""
param *.eNodeB44.x2App[1].client.connectAddress "\"eNodeB23%x2ppp5\""
param *.eNodeB44.x2App[2].client.connectAddress "\"eNodeB30%x2ppp6\""
param *.eNodeB44.x2App[3].client.connectAddress "\"eNodeB38%x2ppp7\""
param *.eNodeB44.x2App[4].client.connectAddress "\"eNodeB62%x2ppp6\""
param *.eNodeB44.x2App[5].client.connectAddress "\"eNodeB3%x2ppp4\""
param *.eNodeB44.x2App[6].client.connectAddress "\"eNodeB12%x2ppp5\""
param *.eNodeB44.x2App[7].client.connectAddress "\"eNodeB32%x2ppp8\""
param *.eNodeB44.x2App[8].client.connectAddress "\"eNodeB36%x2ppp4\""
param *.eNodeB45.numX2Apps 19
param *.eNodeB45.x2App[0].client.connectAddress "\"eNodeB6%x2ppp11\""
param *.eNodeB45.x2App[10].client.connectAddress "\"eNodeB1%x2ppp9\""
param *.eNodeB45.x2App[11].client.connectAddress "\"eNodeB9%x2ppp10\""
param *.eNodeB45.x2App[12].client.connectAddress "\"eNodeB22%x2ppp9\""
param *.eNodeB45.x2App[13].client.connectAddress "\"eNodeB29%x2ppp7\""
param *.eNodeB45.x2App[14].client.connectAddress "\"eNodeB33%x2ppp4\""
param *.eNodeB45.x2App[15].client.connectAddress "\"eNodeB42%x2ppp8\""
param *.eNodeB45.x2App[16].client.connectAddress "\"eNodeB43%x2ppp8\""
param *.eNodeB45.x2App[17].client.connectAddress "\"eNodeB51%x2ppp6\""
param *.eNodeB45.x2App[18].client.connectAddress "\"eNodeB52%x2ppp9\""
param *.eNodeB45.x2App[1].client.connectAddress "\"eNodeB14%x2ppp12\""
param *.eNodeB45.x2App[2].client.connectAddress "\"eNodeB27%x2ppp9\""
param *.eNodeB45.x2App[3].client.connectAddress "\"eNodeB34%x2ppp10\""
param *.eNodeB45.x2App[4].client.connectAddress "\"eNodeB37%x2ppp10\""
param *.eNodeB45.x2App[5].client.connectAddress "\"eNodeB41%x2ppp11\""
param *.eNodeB45.x2App[6].client.connectAddress "\"eNodeB50%x2ppp11\""
param *.eNodeB45.x2App[7].client.connectAddress "\"eNodeB53%x2ppp9\""
param *.eNodeB45.x2App[8].client.connectAddress "\"eNodeB58%x2ppp11\""
param *.eNodeB45.x2App[9].client.connectAddress "\"eNodeB66%x2ppp15\""
param *.eNodeB46.numX2Apps 10
param *.eNodeB46.x2App[0].client.connectAddress "\"eNodeB2%x2ppp10\""
param *.eNodeB46.x2App[1].client.connectAddress "\"eNodeB3%x2ppp5\""
param *.eNodeB46.x2App[2].client.connectAddress "\"eNodeB5%x2ppp9\""
param *.eNodeB46.x2App[3].client.connectAddress "\"eNodeB20%x2ppp3\""
param *.eNodeB46.x2App[4].client.connectAddress "\"eNodeB25%x2ppp6\""
param *.eNodeB46.x2App[5].client.connectAddress "\"eNodeB30%x2ppp7\""
param *.eNodeB46.x2App[6].client.connectAddress "\"eNodeB32%x2ppp9\""
param *.eNodeB46.x2App[7].client.connectAddress "\"eNodeB55%x2ppp8\""
param *.eNodeB46.x2App[8].client.connectAddress "\"eNodeB62%x2ppp7\""
param *.eNodeB46.x2App[9].client.connectAddress "\"eNodeB12%x2ppp6\""
param *.eNodeB47.numX2Apps 13
param *.eNodeB47.x2App[0].client.connectAddress "\"eNodeB2%x2ppp11\""
param *.eNodeB47.x2App[10].client.connectAddress "\"eNodeB31%x2ppp9\""
param *.eNodeB47.x2App[11].client.connectAddress "\"eNodeB57%x2ppp8\""
param *.eNodeB47.x2App[12].client.connectAddress "\"eNodeB63%x2ppp8\""
param *.eNodeB47.x2App[1].client.connectAddress "\"eNodeB5%x2ppp10\""
param *.eNodeB47.x2App[2].client.connectAddress "\"eNodeB7%x2ppp12\""
param *.eNodeB47.x2App[3].client.connectAddress "\"eNodeB8%x2ppp9\""
param *.eNodeB47.x2App[4].client.connectAddress "\"eNodeB9%x2ppp11\""
param *.eNodeB47.x2App[5].client.connectAddress "\"eNodeB10%x2ppp7\""
param *.eNodeB47.x2App[6].client.connectAddress "\"eNodeB35%x2ppp8\""
param *.eNodeB47.x2App[7].client.connectAddress "\"eNodeB64%x2ppp10\""
param *.eNodeB47.x2App[8].client.connectAddress "\"eNodeB13%x2ppp8\""
param *.eNodeB47.x2App[9].client.connectAddress "\"eNodeB28%x2ppp6\""
param *.eNodeB48.numX2Apps 10
param *.eNodeB48.x2App[0].client.connectAddress "\"eNodeB18%x2ppp5\""
param *.eNodeB48.x2App[1].client.connectAddress "\"eNodeB19%x2ppp6\""
param *.eNodeB48.x2App[2].client.connectAddress "\"eNodeB35%x2ppp9\""
param *.eNodeB48.x2App[3].client.connectAddress "\"eNodeB57%x2ppp9\""
param *.eNodeB48.x2App[4].client.connectAddress "\"eNodeB60%x2ppp7\""
param *.eNodeB48.x2App[5].client.connectAddress "\"eNodeB63%x2ppp9\""
param *.eNodeB48.x2App[6].client.connectAddress "\"eNodeB65%x2ppp9\""
param *.eNodeB48.x2App[7].client.connectAddress "\"eNodeB31%x2ppp10\""
param *.eNodeB48.x2App[8].client.connectAddress "\"eNodeB40%x2ppp6\""
param *.eNodeB48.x2App[9].client.connectAddress "\"eNodeB58%x2ppp12\""
param *.eNodeB49.numX2Apps 8
param *.eNodeB49.x2App[0].client.connectAddress "\"eNodeB17%x2ppp3\""
param *.eNodeB49.x2App[1].client.connectAddress "\"eNodeB20%x2ppp4\""
param *.eNodeB49.x2App[2].client.connectAddress "\"eNodeB25%x2ppp7\""
param *.eNodeB49.x2App[3].client.connectAddress "\"eNodeB29%x2ppp8\""
param *.eNodeB49.x2App[4].client.connectAddress "\"eNodeB51%x2ppp7\""
param *.eNodeB49.x2App[5].client.connectAddress "\"eNodeB52%x2ppp10\""
param *.eNodeB49.x2App[6].client.connectAddress "\"eNodeB56%x2ppp3\""
param *.eNodeB49.x2App[7].client.connectAddress "\"eNodeB4%x2ppp2\""
param *.eNodeB5.numX2Apps 13
param *.eNodeB5.x2App[0].client.connectAddress "\"eNodeB2%x2ppp0\""
param *.eNodeB5.x2App[10].client.connectAddress "\"eNodeB47%x2ppp1\""
param *.eNodeB5.x2App[11].client.connectAddress "\"eNodeB52%x2ppp0\""
param *.eNodeB5.x2App[12].client.connectAddress "\"eNodeB53%x2ppp0\""
param *.eNodeB5.x2App[1].client.connectAddress "\"eNodeB25%x2ppp1\""
param *.eNodeB5.x2App[2].client.connectAddress "\"eNodeB34%x2ppp1\""
param *.eNodeB5.x2App[3].client.connectAddress "\"eNodeB7%x2ppp1\""
param *.eNodeB5.x2App[4].client.connectAddress "\"eNodeB8%x2ppp1\""
param *.eNodeB5.x2App[5].client.connectAddress "\"eNodeB9%x2ppp1\""
param *.eNodeB5.x2App[6].client.connectAddress "\"eNodeB27%x2ppp1\""
param *.eNodeB5.x2App[7].client.connectAddress "\"eNodeB29%x2ppp0\""
param *.eNodeB5.x2App[8].client.connectAddress "\"eNodeB32%x2ppp2\""
param *.eNodeB5.x2App[9].client.connectAddress "\"eNodeB46%x2ppp2\""
param *.eNodeB50.numX2Apps 15
param *.eNodeB50.x2App[0].client.connectAddress "\"eNodeB1%x2ppp10\""
param *.eNodeB50.x2App[10].client.connectAddress "\"eNodeB33%x2ppp5\""
param *.eNodeB50.x2App[11].client.connectAddress "\"eNodeB34%x2ppp11\""
param *.eNodeB50.x2App[12].client.connectAddress "\"eNodeB54%x2ppp9\""
param *.eNodeB50.x2App[13].client.connectAddress "\"eNodeB58%x2ppp13\""
param *.eNodeB50.x2App[14].client.connectAddress "\"eNodeB66%x2ppp16\""
param *.eNodeB50.x2App[1].client.connectAddress "\"eNodeB27%x2ppp10\""
param *.eNodeB50.x2App[2].client.connectAddress "\"eNodeB37%x2ppp11\""
param *.eNodeB50.x2App[3].client.connectAddress "\"eNodeB41%x2ppp12\""
param *.eNodeB50.x2App[4].client.connectAddress "\"eNodeB42%x2ppp9\""
param *.eNodeB50.x2App[5].client.connectAddress "\"eNodeB43%x2ppp9\""
param *.eNodeB50.x2App[6].client.connectAddress "\"eNodeB45%x2ppp13\""
param *.eNodeB50.x2App[7].client.connectAddress "\"eNodeB6%x2ppp12\""
param *.eNodeB50.x2App[8].client.connectAddress "\"eNodeB14%x2ppp13\""
param *.eNodeB50.x2App[9].client.connectAddress "\"eNodeB22%x2ppp10\""
param *.eNodeB51.numX2Apps 11
param *.eNodeB51.x2App[0].client.connectAddress "\"eNodeB25%x2ppp8\""
param *.eNodeB51.x2App[10].client.connectAddress "\"eNodeB45%x2ppp14\""
param *.eNodeB51.x2App[1].client.connectAddress "\"eNodeB29%x2ppp9\""
param *.eNodeB51.x2App[2].client.connectAddress "\"eNodeB33%x2ppp6\""
param *.eNodeB51.x2App[3].client.connectAddress "\"eNodeB49%x2ppp5\""
param *.eNodeB51.x2App[4].client.connectAddress "\"eNodeB52%x2ppp11\""
param *.eNodeB51.x2App[5].client.connectAddress "\"eNodeB53%x2ppp10\""
param *.eNodeB51.x2App[6].client.connectAddress "\"eNodeB56%x2ppp4\""
param *.eNodeB51.x2App[7].client.connectAddress "\"eNodeB6%x2ppp13\""
param *.eNodeB51.x2App[8].client.connectAddress "\"eNodeB17%x2ppp4\""
param *.eNodeB51.x2App[9].client.connectAddress "\"eNodeB34%x2ppp12\""
param *.eNodeB52.numX2Apps 13
param *.eNodeB52.x2App[0].client.connectAddress "\"eNodeB5%x2ppp11\""
param *.eNodeB52.x2App[10].client.connectAddress "\"eNodeB27%x2ppp11\""
param *.eNodeB52.x2App[11].client.connectAddress "\"eNodeB33%x2ppp7\""
param *.eNodeB52.x2App[12].client.connectAddress "\"eNodeB45%x2ppp15\""
param *.eNodeB52.x2App[1].client.connectAddress "\"eNodeB6%x2ppp14\""
param *.eNodeB52.x2App[2].client.connectAddress "\"eNodeB20%x2ppp5\""
param *.eNodeB52.x2App[3].client.connectAddress "\"eNodeB25%x2ppp9\""
param *.eNodeB52.x2App[4].client.connectAddress "\"eNodeB29%x2ppp10\""
param *.eNodeB52.x2App[5].client.connectAddress "\"eNodeB34%x2ppp13\""
param *.eNodeB52.x2App[6].client.connectAddress "\"eNodeB49%x2ppp6\""
param *.eNodeB52.x2App[7].client.connectAddress "\"eNodeB51%x2ppp8\""
param *.eNodeB52.x2App[8].client.connectAddress "\"eNodeB53%x2ppp11\""
param *.eNodeB52.x2App[9].client.connectAddress "\"eNodeB17%x2ppp5\""
param *.eNodeB53.numX2Apps 13
param *.eNodeB53.x2App[0].client.connectAddress "\"eNodeB5%x2ppp12\""
param *.eNodeB53.x2App[10].client.connectAddress "\"eNodeB9%x2ppp12\""
param *.eNodeB53.x2App[11].client.connectAddress "\"eNodeB37%x2ppp12\""
param *.eNodeB53.x2App[12].client.connectAddress "\"eNodeB58%x2ppp14\""
param *.eNodeB53.x2App[1].client.connectAddress "\"eNodeB6%x2ppp15\""
param *.eNodeB53.x2App[2].client.connectAddress "\"eNodeB25%x2ppp10\""
param *.eNodeB53.x2App[3].client.connectAddress "\"eNodeB27%x2ppp12\""
param *.eNodeB53.x2App[4].client.connectAddress "\"eNodeB29%x2ppp11\""
param *.eNodeB53.x2App[5].client.connectAddress "\"eNodeB33%x2ppp8\""
param *.eNodeB53.x2App[6].client.connectAddress "\"eNodeB34%x2ppp14\""
param *.eNodeB53.x2App[7].client.connectAddress "\"eNodeB45%x2ppp16\""
param *.eNodeB53.x2App[8].client.connectAddress "\"eNodeB51%x2ppp9\""
param *.eNodeB53.x2App[9].client.connectAddress "\"eNodeB52%x2ppp12\""
param *.eNodeB54.numX2Apps 12
param *.eNodeB54.x2App[0].client.connectAddress "\"eNodeB11%x2ppp8\""
param *.eNodeB54.x2App[10].client.connectAddress "\"eNodeB43%x2ppp10\""
param *.eNodeB54.x2App[11].client.connectAddress "\"eNodeB50%x2ppp12\""
param *.eNodeB54.x2App[1].client.connectAddress "\"eNodeB14%x2ppp14\""
param *.eNodeB54.x2App[2].client.connectAddress "\"eNodeB19%x2ppp7\""
param *.eNodeB54.x2App[3].client.connectAddress "\"eNodeB22%x2ppp11\""
param *.eNodeB54.x2App[4].client.connectAddress "\"eNodeB40%x2ppp7\""
param *.eNodeB54.x2App[5].client.connectAddress "\"eNodeB58%x2ppp15\""
param *.eNodeB54.x2App[6].client.connectAddress "\"eNodeB66%x2ppp17\""
param *.eNodeB54.x2App[7].client.connectAddress "\"eNodeB1%x2ppp11\""
param *.eNodeB54.x2App[8].client.connectAddress "\"eNodeB18%x2ppp6\""
param *.eNodeB54.x2App[9].client.connectAddress "\"eNodeB41%x2ppp13\""
param *.eNodeB55.numX2Apps 10
param *.eNodeB55.x2App[0].client.connectAddress "\"eNodeB3%x2ppp6\""
param *.eNodeB55.x2App[1].client.connectAddress "\"eNodeB4%x2ppp3\""
param *.eNodeB55.x2App[2].client.connectAddress "\"eNodeB12%x2ppp7\""
param *.eNodeB55.x2App[3].client.connectAddress "\"eNodeB20%x2ppp6\""
param *.eNodeB55.x2App[4].client.connectAddress "\"eNodeB25%x2ppp11\""
param *.eNodeB55.x2App[5].client.connectAddress "\"eNodeB46%x2ppp8\""
param *.eNodeB55.x2App[6].client.connectAddress "\"eNodeB17%x2ppp6\""
param *.eNodeB55.x2App[7].client.connectAddress "\"eNodeB30%x2ppp8\""
param *.eNodeB55.x2App[8].client.connectAddress "\"eNodeB32%x2ppp10\""
param *.eNodeB55.x2App[9].client.connectAddress "\"eNodeB62%x2ppp8\""
param *.eNodeB56.numX2Apps 5
param *.eNodeB56.x2App[0].client.connectAddress "\"eNodeB4%x2ppp4\""
param *.eNodeB56.x2App[1].client.connectAddress "\"eNodeB17%x2ppp7\""
param *.eNodeB56.x2App[2].client.connectAddress "\"eNodeB33%x2ppp9\""
param *.eNodeB56.x2App[3].client.connectAddress "\"eNodeB49%x2ppp7\""
param *.eNodeB56.x2App[4].client.connectAddress "\"eNodeB51%x2ppp10\""
param *.eNodeB57.numX2Apps 14
param *.eNodeB57.x2App[0].client.connectAddress "\"eNodeB10%x2ppp8\""
param *.eNodeB57.x2App[10].client.connectAddress "\"eNodeB7%x2ppp13\""
param *.eNodeB57.x2App[11].client.connectAddress "\"eNodeB8%x2ppp10\""
param *.eNodeB57.x2App[12].client.connectAddress "\"eNodeB31%x2ppp11\""
param *.eNodeB57.x2App[13].client.connectAddress "\"eNodeB47%x2ppp10\""
param *.eNodeB57.x2App[1].client.connectAddress "\"eNodeB13%x2ppp9\""
param *.eNodeB57.x2App[2].client.connectAddress "\"eNodeB15%x2ppp4\""
param *.eNodeB57.x2App[3].client.connectAddress "\"eNodeB28%x2ppp7\""
param *.eNodeB57.x2App[4].client.connectAddress "\"eNodeB35%x2ppp10\""
param *.eNodeB57.x2App[5].client.connectAddress "\"eNodeB48%x2ppp5\""
param *.eNodeB57.x2App[6].client.connectAddress "\"eNodeB63%x2ppp10\""
param *.eNodeB57.x2App[7].client.connectAddress "\"eNodeB60%x2ppp8\""
param *.eNodeB57.x2App[8].client.connectAddress "\"eNodeB64%x2ppp11\""
param *.eNodeB57.x2App[9].client.connectAddress "\"eNodeB65%x2ppp10\""
param *.eNodeB58.numX2Apps 17
param *.eNodeB58.x2App[0].client.connectAddress "\"eNodeB9%x2ppp13\""
param *.eNodeB58.x2App[10].client.connectAddress "\"eNodeB1%x2ppp12\""
param *.eNodeB58.x2App[11].client.connectAddress "\"eNodeB6%x2ppp16\""
param *.eNodeB58.x2App[12].client.connectAddress "\"eNodeB22%x2ppp12\""
param *.eNodeB58.x2App[13].client.connectAddress "\"eNodeB34%x2ppp15\""
param *.eNodeB58.x2App[14].client.connectAddress "\"eNodeB48%x2ppp6\""
param *.eNodeB58.x2App[15].client.connectAddress "\"eNodeB50%x2ppp13\""
param *.eNodeB58.x2App[16].client.connectAddress "\"eNodeB53%x2ppp12\""
param *.eNodeB58.x2App[1].client.connectAddress "\"eNodeB14%x2ppp15\""
param *.eNodeB58.x2App[2].client.connectAddress "\"eNodeB19%x2ppp8\""
param *.eNodeB58.x2App[3].client.connectAddress "\"eNodeB27%x2ppp13\""
param *.eNodeB58.x2App[4].client.connectAddress "\"eNodeB35%x2ppp11\""
param *.eNodeB58.x2App[5].client.connectAddress "\"eNodeB40%x2ppp8\""
param *.eNodeB58.x2App[6].client.connectAddress "\"eNodeB41%x2ppp14\""
param *.eNodeB58.x2App[7].client.connectAddress "\"eNodeB45%x2ppp17\""
param *.eNodeB58.x2App[8].client.connectAddress "\"eNodeB54%x2ppp10\""
param *.eNodeB58.x2App[9].client.connectAddress "\"eNodeB66%x2ppp18\""
param *.eNodeB59.numX2Apps 10
param *.eNodeB59.x2App[0].client.connectAddress "\"eNodeB15%x2ppp5\""
param *.eNodeB59.x2App[1].client.connectAddress "\"eNodeB16%x2ppp4\""
param *.eNodeB59.x2App[2].client.connectAddress "\"eNodeB24%x2ppp3\""
param *.eNodeB59.x2App[3].client.connectAddress "\"eNodeB26%x2ppp1\""
param *.eNodeB59.x2App[4].client.connectAddress "\"eNodeB39%x2ppp5\""
param *.eNodeB59.x2App[5].client.connectAddress "\"eNodeB61%x2ppp3\""
param *.eNodeB59.x2App[6].client.connectAddress "\"eNodeB28%x2ppp8\""
param *.eNodeB59.x2App[7].client.connectAddress "\"eNodeB60%x2ppp9\""
param *.eNodeB59.x2App[8].client.connectAddress "\"eNodeB65%x2ppp11\""
param *.eNodeB59.x2App[9].client.connectAddress "\"eNodeB64%x2ppp12\""
param *.eNodeB6.numX2Apps 18
param *.eNodeB6.x2App[0].client.connectAddress "\"eNodeB37%x2ppp1\""
param *.eNodeB6.x2App[10].client.connectAddress "\"eNodeB50%x2ppp1\""
param *.eNodeB6.x2App[11].client.connectAddress "\"eNodeB14%x2ppp1\""
param *.eNodeB6.x2App[12].client.connectAddress "\"eNodeB22%x2ppp1\""
param *.eNodeB6.x2App[13].client.connectAddress "\"eNodeB41%x2ppp1\""
param *.eNodeB6.x2App[14].client.connectAddress "\"eNodeB43%x2ppp1\""
param *.eNodeB6.x2App[15].client.connectAddress "\"eNodeB51%x2ppp0\""
param *.eNodeB6.x2App[16].client.connectAddress "\"eNodeB58%x2ppp1\""
param *.eNodeB6.x2App[17].client.connectAddress "\"eNodeB66%x2ppp1\""
param *.eNodeB6.x2App[1].client.connectAddress "\"eNodeB45%x2ppp1\""
param *.eNodeB6.x2App[2].client.connectAddress "\"eNodeB27%x2ppp2\""
param *.eNodeB6.x2App[3].client.connectAddress "\"eNodeB29%x2ppp1\""
param *.eNodeB6.x2App[4].client.connectAddress "\"eNodeB33%x2ppp0\""
param *.eNodeB6.x2App[5].client.connectAddress "\"eNodeB34%x2ppp2\""
param *.eNodeB6.x2App[6].client.connectAddress "\"eNodeB42%x2ppp1\""
param *.eNodeB6.x2App[7].client.connectAddress "\"eNodeB52%x2ppp1\""
param *.eNodeB6.x2App[8].client.connectAddress "\"eNodeB53%x2ppp1\""
param *.eNodeB6.x2App[9].client.connectAddress "\"eNodeB1%x2ppp0\""
param *.eNodeB60.numX2Apps 13
param *.eNodeB60.x2App[0].client.connectAddress "\"eNodeB15%x2ppp6\""
param *.eNodeB60.x2App[10].client.connectAddress "\"eNodeB59%x2ppp6\""
param *.eNodeB60.x2App[11].client.connectAddress "\"eNodeB63%x2ppp11\""
param *.eNodeB60.x2App[12].client.connectAddress "\"eNodeB64%x2ppp13\""
param *.eNodeB60.x2App[1].client.connectAddress "\"eNodeB24%x2ppp4\""
param *.eNodeB60.x2App[2].client.connectAddress "\"eNodeB28%x2ppp9\""
param *.eNodeB60.x2App[3].client.connectAddress "\"eNodeB48%x2ppp7\""
param *.eNodeB60.x2App[4].client.connectAddress "\"eNodeB57%x2ppp10\""
param *.eNodeB60.x2App[5].client.connectAddress "\"eNodeB65%x2ppp12\""
param *.eNodeB60.x2App[6].client.connectAddress "\"eNodeB8%x2ppp11\""
param *.eNodeB60.x2App[7].client.connectAddress "\"eNodeB10%x2ppp9\""
param *.eNodeB60.x2App[8].client.connectAddress "\"eNodeB13%x2ppp10\""
param *.eNodeB60.x2App[9].client.connectAddress "\"eNodeB31%x2ppp12\""
param *.eNodeB61.numX2Apps 4
param *.eNodeB61.x2App[0].client.connectAddress "\"eNodeB16%x2ppp5\""
param *.eNodeB61.x2App[1].client.connectAddress "\"eNodeB26%x2ppp2\""
param *.eNodeB61.x2App[2].client.connectAddress "\"eNodeB39%x2ppp6\""
param *.eNodeB61.x2App[3].client.connectAddress "\"eNodeB59%x2ppp7\""
param *.eNodeB62.numX2Apps 9
param *.eNodeB62.x2App[0].client.connectAddress "\"eNodeB3%x2ppp7\""
param *.eNodeB62.x2App[1].client.connectAddress "\"eNodeB12%x2ppp8\""
param *.eNodeB62.x2App[2].client.connectAddress "\"eNodeB30%x2ppp9\""
param *.eNodeB62.x2App[3].client.connectAddress "\"eNodeB32%x2ppp11\""
param *.eNodeB62.x2App[4].client.connectAddress "\"eNodeB36%x2ppp5\""
param *.eNodeB62.x2App[5].client.connectAddress "\"eNodeB38%x2ppp8\""
param *.eNodeB62.x2App[6].client.connectAddress "\"eNodeB44%x2ppp8\""
param *.eNodeB62.x2App[7].client.connectAddress "\"eNodeB46%x2ppp9\""
param *.eNodeB62.x2App[8].client.connectAddress "\"eNodeB55%x2ppp9\""
param *.eNodeB63.numX2Apps 14
param *.eNodeB63.x2App[0].client.connectAddress "\"eNodeB10%x2ppp10\""
param *.eNodeB63.x2App[10].client.connectAddress "\"eNodeB28%x2ppp10\""
param *.eNodeB63.x2App[11].client.connectAddress "\"eNodeB47%x2ppp11\""
param *.eNodeB63.x2App[12].client.connectAddress "\"eNodeB60%x2ppp10\""
param *.eNodeB63.x2App[13].client.connectAddress "\"eNodeB64%x2ppp14\""
param *.eNodeB63.x2App[1].client.connectAddress "\"eNodeB13%x2ppp11\""
param *.eNodeB63.x2App[2].client.connectAddress "\"eNodeB19%x2ppp9\""
param *.eNodeB63.x2App[3].client.connectAddress "\"eNodeB31%x2ppp13\""
param *.eNodeB63.x2App[4].client.connectAddress "\"eNodeB35%x2ppp12\""
param *.eNodeB63.x2App[5].client.connectAddress "\"eNodeB48%x2ppp8\""
param *.eNodeB63.x2App[6].client.connectAddress "\"eNodeB57%x2ppp11\""
param *.eNodeB63.x2App[7].client.connectAddress "\"eNodeB65%x2ppp13\""
param *.eNodeB63.x2App[8].client.connectAddress "\"eNodeB7%x2ppp14\""
param *.eNodeB63.x2App[9].client.connectAddress "\"eNodeB8%x2ppp12\""
param *.eNodeB64.numX2Apps 16
param *.eNodeB64.x2App[0].client.connectAddress "\"eNodeB7%x2ppp15\""
param *.eNodeB64.x2App[10].client.connectAddress "\"eNodeB24%x2ppp5\""
param *.eNodeB64.x2App[11].client.connectAddress "\"eNodeB31%x2ppp14\""
param *.eNodeB64.x2App[12].client.connectAddress "\"eNodeB59%x2ppp8\""
param *.eNodeB64.x2App[13].client.connectAddress "\"eNodeB60%x2ppp11\""
param *.eNodeB64.x2App[14].client.connectAddress "\"eNodeB63%x2ppp12\""
param *.eNodeB64.x2App[15].client.connectAddress "\"eNodeB65%x2ppp14\""
param *.eNodeB64.x2App[1].client.connectAddress "\"eNodeB10%x2ppp11\""
param *.eNodeB64.x2App[2].client.connectAddress "\"eNodeB15%x2ppp7\""
param *.eNodeB64.x2App[3].client.connectAddress "\"eNodeB16%x2ppp6\""
param *.eNodeB64.x2App[4].client.connectAddress "\"eNodeB23%x2ppp6\""
param *.eNodeB64.x2App[5].client.connectAddress "\"eNodeB28%x2ppp11\""
param *.eNodeB64.x2App[6].client.connectAddress "\"eNodeB47%x2ppp12\""
param *.eNodeB64.x2App[7].client.connectAddress "\"eNodeB57%x2ppp12\""
param *.eNodeB64.x2App[8].client.connectAddress "\"eNodeB8%x2ppp13\""
param *.eNodeB64.x2App[9].client.connectAddress "\"eNodeB13%x2ppp12\""
param *.eNodeB65.numX2Apps 15
param *.eNodeB65.x2App[0].client.connectAddress "\"eNodeB18%x2ppp7\""
param *.eNodeB65.x2App[10].client.connectAddress "\"eNodeB15%x2ppp8\""
param *.eNodeB65.x2App[11].client.connectAddress "\"eNodeB28%x2ppp12\""
param *.eNodeB65.x2App[12].client.connectAddress "\"eNodeB31%x2ppp15\""
param *.eNodeB65.x2App[13].client.connectAddress "\"eNodeB59%x2ppp9\""
param *.eNodeB65.x2App[14].client.connectAddress "\"eNodeB64%x2ppp15\""
param *.eNodeB65.x2App[1].client.connectAddress "\"eNodeB24%x2ppp6\""
param *.eNodeB65.x2App[2].client.connectAddress "\"eNodeB35%x2ppp13\""
param *.eNodeB65.x2App[3].client.connectAddress "\"eNodeB39%x2ppp7\""
param *.eNodeB65.x2App[4].client.connectAddress "\"eNodeB48%x2ppp9\""
param *.eNodeB65.x2App[5].client.connectAddress "\"eNodeB57%x2ppp13\""
param *.eNodeB65.x2App[6].client.connectAddress "\"eNodeB60%x2ppp12\""
param *.eNodeB65.x2App[7].client.connectAddress "\"eNodeB63%x2ppp13\""
param *.eNodeB65.x2App[8].client.connectAddress "\"eNodeB10%x2ppp12\""
param *.eNodeB65.x2App[9].client.connectAddress "\"eNodeB13%x2ppp13\""
param *.eNodeB66.numX2Apps 19
param *.eNodeB66.x2App[0].client.connectAddress "\"eNodeB14%x2ppp16\""
param *.eNodeB66.x2App[10].client.connectAddress "\"eNodeB1%x2ppp13\""
param *.eNodeB66.x2App[11].client.connectAddress "\"eNodeB6%x2ppp17\""
param *.eNodeB66.x2App[12].client.connectAddress "\"eNodeB9%x2ppp14\""
param *.eNodeB66.x2App[13].client.connectAddress "\"eNodeB11%x2ppp9\""
param *.eNodeB66.x2App[14].client.connectAddress "\"eNodeB34%x2ppp16\""
param *.eNodeB66.x2App[15].client.connectAddress "\"eNodeB37%x2ppp13\""
param *.eNodeB66.x2App[16].client.connectAddress "\"eNodeB42%x2ppp10\""
param *.eNodeB66.x2App[17].client.connectAddress "\"eNodeB43%x2ppp11\""
param *.eNodeB66.x2App[18].client.connectAddress "\"eNodeB50%x2ppp14\""
param *.eNodeB66.x2App[1].client.connectAddress "\"eNodeB19%x2ppp10\""
param *.eNodeB66.x2App[2].client.connectAddress "\"eNodeB22%x2ppp13\""
param *.eNodeB66.x2App[3].client.connectAddress "\"eNodeB27%x2ppp14\""
param *.eNodeB66.x2App[4].client.connectAddress "\"eNodeB35%x2ppp14\""
param *.eNodeB66.x2App[5].client.connectAddress "\"eNodeB40%x2ppp9\""
param *.eNodeB66.x2App[6].client.connectAddress "\"eNodeB41%x2ppp15\""
param *.eNodeB66.x2App[7].client.connectAddress "\"eNodeB45%x2ppp18\""
param *.eNodeB66.x2App[8].client.connectAddress "\"eNodeB54%x2ppp11\""
param *.eNodeB66.x2App[9].client.connectAddress "\"eNodeB58%x2ppp16\""
param *.eNodeB7.numX2Apps 16
param *.eNodeB7.x2App[0].client.connectAddress "\"eNodeB2%x2ppp1\""
param *.eNodeB7.x2App[10].client.connectAddress "\"eNodeB8%x2ppp2\""
param *.eNodeB7.x2App[11].client.connectAddress "\"eNodeB13%x2ppp1\""
param *.eNodeB7.x2App[12].client.connectAddress "\"eNodeB31%x2ppp1\""
param *.eNodeB7.x2App[13].client.connectAddress "\"eNodeB35%x2ppp0\""
param *.eNodeB7.x2App[14].client.connectAddress "\"eNodeB57%x2ppp0\""
param *.eNodeB7.x2App[15].client.connectAddress "\"eNodeB63%x2ppp0\""
param *.eNodeB7.x2App[1].client.connectAddress "\"eNodeB5%x2ppp1\""
param *.eNodeB7.x2App[2].client.connectAddress "\"eNodeB16%x2ppp0\""
param *.eNodeB7.x2App[3].client.connectAddress "\"eNodeB23%x2ppp0\""
param *.eNodeB7.x2App[4].client.connectAddress "\"eNodeB44%x2ppp1\""
param *.eNodeB7.x2App[5].client.connectAddress "\"eNodeB47%x2ppp2\""
param *.eNodeB7.x2App[6].client.connectAddress "\"eNodeB10%x2ppp0\""
param *.eNodeB7.x2App[7].client.connectAddress "\"eNodeB30%x2ppp2\""
param *.eNodeB7.x2App[8].client.connectAddress "\"eNodeB32%x2ppp3\""
param *.eNodeB7.x2App[9].client.connectAddress "\"eNodeB64%x2ppp0\""
param *.eNodeB8.numX2Apps 14
param *.eNodeB8.x2App[0].client.connectAddress "\"eNodeB2%x2ppp2\""
param *.eNodeB8.x2App[10].client.connectAddress "\"eNodeB57%x2ppp1\""
param *.eNodeB8.x2App[11].client.connectAddress "\"eNodeB60%x2ppp0\""
param *.eNodeB8.x2App[12].client.connectAddress "\"eNodeB63%x2ppp1\""
param *.eNodeB8.x2App[13].client.connectAddress "\"eNodeB64%x2ppp1\""
param *.eNodeB8.x2App[1].client.connectAddress "\"eNodeB5%x2ppp2\""
param *.eNodeB8.x2App[2].client.connectAddress "\"eNodeB9%x2ppp2\""
param *.eNodeB8.x2App[3].client.connectAddress "\"eNodeB13%x2ppp2\""
param *.eNodeB8.x2App[4].client.connectAddress "\"eNodeB31%x2ppp2\""
param *.eNodeB8.x2App[5].client.connectAddress "\"eNodeB47%x2ppp3\""
param *.eNodeB8.x2App[6].client.connectAddress "\"eNodeB10%x2ppp1\""
param *.eNodeB8.x2App[7].client.connectAddress "\"eNodeB35%x2ppp1\""
param *.eNodeB8.x2App[8].client.connectAddress "\"eNodeB7%x2ppp2\""
param *.eNodeB8.x2App[9].client.connectAddress "\"eNodeB28%x2ppp0\""
param *.eNodeB9.numX2Apps 15
param *.eNodeB9.x2App[0].client.connectAddress "\"eNodeB2%x2ppp3\""
param *.eNodeB9.x2App[10].client.connectAddress "\"eNodeB14%x2ppp2\""
param *.eNodeB9.x2App[11].client.connectAddress "\"eNodeB41%x2ppp2\""
param *.eNodeB9.x2App[12].client.connectAddress "\"eNodeB45%x2ppp2\""
param *.eNodeB9.x2App[13].client.connectAddress "\"eNodeB53%x2ppp2\""
param *.eNodeB9.x2App[14].client.connectAddress "\"eNodeB66%x2ppp2\""
param *.eNodeB9.x2App[1].client.connectAddress "\"eNodeB5%x2ppp3\""
param *.eNodeB9.x2App[2].client.connectAddress "\"eNodeB8%x2ppp3\""
param *.eNodeB9.x2App[3].client.connectAddress "\"eNodeB27%x2ppp3\""
param *.eNodeB9.x2App[4].client.connectAddress "\"eNodeB34%x2ppp3\""
param *.eNodeB9.x2App[5].client.connectAddress "\"eNodeB58%x2ppp2\""
param *.eNodeB9.x2App[6].client.connectAddress "\"eNodeB19%x2ppp0\""
param *.eNodeB9.x2App[7].client.connectAddress "\"eNodeB31%x2ppp3\""
param *.eNodeB9.x2App[8].client.connectAddress "\"eNodeB35%x2ppp2\""
param *.eNodeB9.x2App[9].client.connectAddress "\"eNodeB47%x2ppp4\""
param *.obstacles.debug false
param *.playgroundSizeX 3000m
param *.playgroundSizeY 3000m
param *.playgroundSizeZ 50m
param *.server.numUdpApps 226
param *.server.udpApp[*].destAddress "\"car[\" + string(ancestorIndex(0)) + \"]\""
param *.server.udpApp[*].localPort "3000 + ancestorIndex(0)"
param *.server.udpApp[*].startingTime 0.05s
param *.server.udpApp[*].typename "\"VoIPSender\""
param *.veinsManager.launchConfig "xmldoc(\"erlangen.launchd.xml\")"
param *.veinsManager.moduleDisplayString "\"\""
param *.veinsManager.moduleName "\"car\""
param *.veinsManager.moduleType "\"lte.corenetwork.nodes.cars.Car\""
param *.veinsManager.updateInterval 0.1s

vector 8  ErlangenLTE.server.ppp[0].queue  queueLength:vector  ETV
attr interpolationmode  sample-hold
attr title  "queue length, vector"
vector 9  ErlangenLTE.server.ppp[0].ppp  txState:vector  ETV
attr interpolationmode  sample-hold
attr title  "tx state, vector"
vector 255  ErlangenLTE.router.ppp[0].queue  queueLength:vector  ETV
attr interpolationmode  sample-hold
attr title  "queue length, vector"
vector 256  ErlangenLTE.router.ppp[0].ppp  txState:vector  ETV
attr interpolationmode  sample-hold
attr title  "tx state, vector"
vector 266  ErlangenLTE.router.ppp[1].queue  queueLength:vector  ETV
attr interpolationmode  sample-hold
attr title  "queue length, vector"
vector 267  ErlangenLTE.router.ppp[1].ppp  txState:vector  ETV
attr interpolationmode  sample-hold
attr title  "tx state, vector"
vector 282  ErlangenLTE.pgw.ppp[0].queue  queueLength:vector  ETV
attr interpolationmode  sample-hold
attr title  "queue length, vector"
vector 283  ErlangenLTE.pgw.ppp[0].ppp  txState:vector  ETV
attr interpolationmode  sample-hold
attr title  "tx state, vector"
vector 293  ErlangenLTE.pgw.ppp[1].queue  queueLength:vector  ETV
attr interpolationmode  sample-hold
attr title  "queue length, vector"
vector 294  ErlangenLTE.pgw.ppp[1].ppp  txState:vector  ETV
attr interpolationmode  sample-hold
attr title  "tx state, vector"
vector 304  ErlangenLTE.pgw.ppp[2].queue  queueLength:vector  ETV
attr interpolationmode  sample-hold
attr title  "queue length, vector"
vector 305  ErlangenLTE.pgw.ppp[2].ppp  txState:vector  ETV
attr interpolationmode  sample-hold
attr title  "tx state, vector"
vector 315  ErlangenLTE.pgw.ppp[3].queue  queueLength:vector  ETV
attr interpolationmode  sample-hold
attr title  "queue length, vector"
vector 316  ErlangenLTE.pgw.ppp[3].ppp  txState:vector  ETV
attr interpolationmode  sample-hold
attr title  "tx state, vector"
vector 326  ErlangenLTE.pgw.ppp[4].queue  queueLength:vector  ETV
attr interpolationmode  sample-hold
attr title  "queue length, vector"
vector 327  ErlangenLTE.pgw.ppp[4].ppp  txState:vector  ETV
attr interpolationmode  sample-hold
attr title  "tx state, vector"
vector 337  ErlangenLTE.pgw.ppp[5].queue  queueLength:vector  ETV
attr interpolationmode  sample-hold
attr title  "queue length, vector"
vector 338  ErlangenLTE.pgw.ppp[5].ppp  txState:vector  ETV
attr interpolationmode  sample-hold
attr title  "tx state, vector"
vector 348  ErlangenLTE.pgw.ppp[6].queue  queueLength:vector  ETV
attr interpolationmode  sample-hold
attr title  "queue length, vector"
vector 349  ErlangenLTE.pgw.ppp[6].ppp  txState:vector  ETV
attr interpolationmode  sample-hold
attr title  "tx state, vector"
vector 359  ErlangenLTE.pgw.ppp[7].queue  queueLength:vector  ETV
attr interpolationmode  sample-hold
attr title  "queue length, vector"
vector 360  ErlangenLTE.pgw.ppp[7].ppp  txState:vector  ETV
attr interpolationmode  sample-hold
attr title  "tx state, vector"
vector 370  ErlangenLTE.pgw.ppp[8].queue  queueLength:vector  ETV
attr interpolationmode  sample-hold
attr title  "queue length, vector"
vector 371  ErlangenLTE.pgw.ppp[8].ppp  txState:vector  ETV
attr interpolationmode  sample-hold
attr title  "tx state, vector"
vector 381  ErlangenLTE.pgw.ppp[9].queue  queueLength:vector  ETV
attr interpolationmode  sample-hold
attr title  "queue length, vector"
vector 382  ErlangenLTE.pgw.ppp[9].ppp  txState:vector  ETV
attr interpolationmode  sample-hold
attr title  "tx state, vector"
vector 392  ErlangenLTE.pgw.ppp[10].queue  queueLength:vector  ETV
attr interpolationmode  sample-hold
attr title  "queue length, vector"
vector 393  ErlangenLTE.pgw.ppp[10].ppp  txState:vector  ETV
attr interpolationmode  sample-hold
attr title  "tx state, vector"
vector 403  ErlangenLTE.pgw.ppp[11].queue  queueLength:vector  ETV
attr interpolationmode  sample-hold
attr title  "queue length, vector"
vector 404  ErlangenLTE.pgw.ppp[11].ppp  txState:vector  ETV
attr interpolationmode  sample-hold
attr title  "tx state, vector"
vector 414  ErlangenLTE.pgw.ppp[12].queue  queueLength:vector  ETV
attr interpolationmode  sample-hold
attr title  "queue length, vector"
vector 415  ErlangenLTE.pgw.ppp[12].ppp  txState:vector  ETV
attr interpolationmode  sample-hold
attr title  "tx state, vector"
vector 425  ErlangenLTE.pgw.ppp[13].queue  queueLength:vector  ETV
attr interpolationmode  sample-hold
attr title  "queue length, vector"
vector 426  ErlangenLTE.pgw.ppp[13].ppp  txState:vector  ETV
attr interpolationmode  sample-hold
attr title  "tx state, vector"
vector 436  ErlangenLTE.pgw.ppp[14].queue  queueLength:vector  ETV
attr interpolationmode  sample-hold
attr title  "queue length, vector"
vector 437  ErlangenLTE.pgw.ppp[14].ppp  txState:vector  ETV
attr interpolationmode  sample-hold
attr title  "tx state, vector"
vector 447  ErlangenLTE.pgw.ppp[15].queue  queueLength:vector  ETV
attr interpolationmode  sample-hold
attr title  "queue length, vector"
vector 448  ErlangenLTE.pgw.ppp[15].ppp  txState:vector  ETV
attr interpolationmode  sample-hold
attr title  "tx state, vector"
vector 458  ErlangenLTE.pgw.ppp[16].queue  queueLength:vector  ETV
attr interpolationmode  sample-hold
attr title  "queue length, vector"
vector 459  ErlangenLTE.pgw.ppp[16].ppp  txState:vector  ETV
attr interpolationmode  sample-hold
attr title  "tx state, vector"
vector 469  ErlangenLTE.pgw.ppp[17].queue  queueLength:vector  ETV
attr interpolationmode  sample-hold
attr title  "queue length, vector"
vector 470  ErlangenLTE.pgw.ppp[17].ppp  txState:vector  ETV
attr interpolationmode  sample-hold
attr title  "tx state, vector"
vector 480  ErlangenLTE.pgw.ppp[18].queue  queueLength:vector  ETV
attr interpolationmode  sample-hold
attr title  "queue length, vector"
vector 481  ErlangenLTE.pgw.ppp[18].ppp  txState:vector  ETV
attr interpolationmode  sample-hold
attr title  "tx state, vector"
vector 491  ErlangenLTE.pgw.ppp[19].queue  queueLength:vector  ETV
attr interpolationmode  sample-hold
attr title  "queue length, vector"
vector 492  ErlangenLTE.pgw.ppp[19].ppp  txState:vector  ETV
attr interpolationmode  sample-hold
attr title  "tx state, vector"
vector 502  ErlangenLTE.pgw.ppp[20].queue  queueLength:vector  ETV
attr interpolationmode  sample-hold
attr title  "queue length, vector"
vector 503  ErlangenLTE.pgw.ppp[20].ppp  txState:vector  ETV
attr interpolationmode  sample-hold
attr title  "tx state, vector"
vector 513  ErlangenLTE.pgw.ppp[21].queue  queueLength:vector  ETV
attr interpolationmode  sample-hold
attr title  "queue length, vector"
vector 514  ErlangenLTE.pgw.ppp[21].ppp  txState:vector  ETV
attr interpolationmode  sample-hold
attr title  "tx state, vector"
vector 524  ErlangenLTE.pgw.ppp[22].queue  queueLength:vector  ETV
attr interpolationmode  sample-hold
attr title  "queue length, vector"
vector 525  ErlangenLTE.pgw.ppp[22].ppp  txState:vector  ETV
attr interpolationmode  sample-hold
attr title  "tx state, vector"
vector 535  ErlangenLTE.pgw.ppp[23].queue  queueLength:vector  ETV
attr interpolationmode  sample-hold
attr title  "queue length, vector"
vector 536  ErlangenLTE.pgw.ppp[23].ppp  txState:vector  ETV
attr interpolationmode  sample-hold
attr title  "tx state, vector"
vector 546  ErlangenLTE.pgw.ppp[24].queue  queueLength:vector  ETV
attr interpolationmode  sample-hold
attr title  "queue length, vector"
vector 547  ErlangenLTE.pgw.ppp[24].ppp  txState:vector  ETV
attr interpolationmode  sample-hold
attr title  "tx state, vector"
vector 557  ErlangenLTE.pgw.ppp[25].queue  queueLength:vector  ETV
attr interpolationmode  sample-hold
attr title  "queue length, vector"
vector 558  ErlangenLTE.pgw.ppp[25].ppp  txState:vector  ETV
attr interpolationmode  sample-hold
attr title  "tx state, vector"
vector 568  ErlangenLTE.pgw.ppp[26].queue  queueLength:vector  ETV
attr interpolationmode  sample-hold
attr title  "queue length, vector"
vector 569  ErlangenLTE.pgw.ppp[26].ppp  txState:vector  ETV
attr interpolationmode  sample-hold
attr title  "tx state, vector"
vector 579  ErlangenLTE.pgw.ppp[27].queue  queueLength:vector  ETV
attr interpolationmode  sample-hold
attr title  "queue length, vector"
vector 580  ErlangenLTE.pgw.ppp[27].ppp  txState:vector  ETV
attr interpolationmode  sample-hold
attr title  "tx state, vector"
vector 590  ErlangenLTE.pgw.ppp[28].queue  queueLength:vector  ETV
attr interpolationmode  sample-hold
attr title  "queue length, vector"
vector 591  ErlangenLTE.pgw.ppp[28].ppp  txState:vector  ETV
attr interpolationmode  sample-hold
attr title  "tx state, vector"
vector 601  ErlangenLTE.pgw.ppp[29].queue  queueLength:vector  ETV
attr interpolationmode  sample-hold
attr title  "queue length, vector"
vector 602  ErlangenLTE.pgw.ppp[29].ppp  txState:vector  ETV
attr interpolationmode  sample-hold
attr title  "tx state, vector"
vector 612  ErlangenLTE.pgw.ppp[30].queue  queueLength:vector  ETV
attr interpolationmode  sample-hold
attr title  "queue length, vector"
vector 613  ErlangenLTE.pgw.ppp[30].ppp  txState:vector  ETV
attr interpolationmode  sample-hold
attr title  "tx state, vector"
vector 623  ErlangenLTE.pgw.ppp[31].queue  queueLength:vector  ETV
attr interpolationmode  sample-hold
attr title  "queue length, vector"
vector 624  ErlangenLTE.pgw.ppp[31].ppp  txState:vector  ETV
attr interpolationmode  sample-hold
attr title  "tx state, vector"
vector 634  ErlangenLTE.pgw.ppp[32].queue  queueLength:vector  ETV
attr interpolationmode  sample-hold
attr title  "queue length, vector"
vector 635  ErlangenLTE.pgw.ppp[32].ppp  txState:vector  ETV
attr interpolationmode  sample-hold
attr title  "tx state, vector"
vector 645  ErlangenLTE.pgw.ppp[33].queue  queueLength:vector  ETV
attr interpolationmode  sample-hold
attr title  "queue length, vector"
vector 646  ErlangenLTE.pgw.ppp[33].ppp  txState:vector  ETV
attr interpolationmode  sample-hold
attr title  "tx state, vector"
vector 656  ErlangenLTE.pgw.ppp[34].queue  queueLength:vector  ETV
attr interpolationmode  sample-hold
attr title  "queue length, vector"
vector 657  ErlangenLTE.pgw.ppp[34].ppp  txState:vector  ETV
attr interpolationmode  sample-hold
attr title  "tx state, vector"
vector 667  ErlangenLTE.pgw.ppp[35].queue  queueLength:vector  ETV
attr interpolationmode  sample-hold
attr title  "queue length, vector"
vector 668  ErlangenLTE.pgw.ppp[35].ppp  txState:vector  ETV
attr interpolationmode  sample-hold
attr title  "tx state, vector"
vector 678  ErlangenLTE.pgw.ppp[36].queue  queueLength:vector  ETV
attr interpolationmode  sample-hold
attr title  "queue length, vector"
vector 679  ErlangenLTE.pgw.ppp[36].ppp  txState:vector  ETV
attr interpolationmode  sample-hold
attr title  "tx state, vector"
vector 689  ErlangenLTE.pgw.ppp[37].queue  queueLength:vector  ETV
attr interpolationmode  sample-hold
attr title  "queue length, vector"
vector 690  ErlangenLTE.pgw.ppp[37].ppp  txState:vector  ETV
attr interpolationmode  sample-hold
attr title  "tx state, vector"
vector 700  ErlangenLTE.pgw.ppp[38].queue  queueLength:vector  ETV
attr interpolationmode  sample-hold
attr title  "queue length, vector"
vector 701  ErlangenLTE.pgw.ppp[38].ppp  txState:vector  ETV
attr interpolationmode  sample-hold
attr title  "tx state, vector"
vector 711  ErlangenLTE.pgw.ppp[39].queue  queueLength:vector  ETV
attr interpolationmode  sample-hold
attr title  "queue length, vector"
vector 712  ErlangenLTE.pgw.ppp[39].ppp  txState:vector  ETV
attr interpolationmode  sample-hold
attr title  "tx state, vector"
vector 722  ErlangenLTE.pgw.ppp[40].queue  queueLength:vector  ETV
attr interpolationmode  sample-hold
attr title  "queue length, vector"
vector 723  ErlangenLTE.pgw.ppp[40].ppp  txState:vector  ETV
attr interpolationmode  sample-hold
attr title  "tx state, vector"
vector 733  ErlangenLTE.pgw.ppp[41].queue  queueLength:vector  ETV
attr interpolationmode  sample-hold
attr title  "queue length, vector"
vector 734  ErlangenLTE.pgw.ppp[41].ppp  txState:vector  ETV
attr interpolationmode  sample-hold
attr title  "tx state, vector"
vector 744  ErlangenLTE.pgw.ppp[42].queue  queueLength:vector  ETV
attr interpolationmode  sample-hold
attr title  "queue length, vector"
vector 745  ErlangenLTE.pgw.ppp[42].ppp  txState:vector  ETV
attr interpolationmode  sample-hold
attr title  "tx state, vector"
vector 755  ErlangenLTE.pgw.ppp[43].queue  queueLength:vector  ETV
attr interpolationmode  sample-hold
attr title  "queue length, vector"
vector 756  ErlangenLTE.pgw.ppp[43].ppp  txState:vector  ETV
attr interpolationmode  sample-hold
attr title  "tx state, vector"
vector 766  ErlangenLTE.pgw.ppp[44].queue  queueLength:vector  ETV
attr interpolationmode  sample-hold
attr title  "queue length, vector"
vector 767  ErlangenLTE.pgw.ppp[44].ppp  txState:vector  ETV
attr interpolationmode  sample-hold
attr title  "tx state, vector"
vector 777  ErlangenLTE.pgw.ppp[45].queue  queueLength:vector  ETV
attr interpolationmode  sample-hold
attr title  "queue length, vector"
vector 778  ErlangenLTE.pgw.ppp[45].ppp  txState:vector  ETV
attr interpolationmode  sample-hold
attr title  "tx state, vector"
vector 788  ErlangenLTE.pgw.ppp[46].queue  queueLength:vector  ETV
attr interpolationmode  sample-hold
attr title  "queue length, vector"
vector 789  ErlangenLTE.pgw.ppp[46].ppp  txState:vector  ETV
attr interpolationmode  sample-hold
attr title  "tx state, vector"
vector 799  ErlangenLTE.pgw.ppp[47].queue  queueLength:vector  ETV
attr interpolationmode  sample-hold
attr title  "queue length, vector"
vector 800  ErlangenLTE.pgw.ppp[47].ppp  txState:vector  ETV
attr interpolationmode  sample-hold
attr title  "tx state, vector"
vector 810  ErlangenLTE.pgw.ppp[48].queue  queueLength:vector  ETV
attr interpolationmode  sample-hold
attr title  "queue length, vector"
vector 811  ErlangenLTE.pgw.ppp[48].ppp  txState:vector  ETV
attr interpolationmode  sample-hold
attr title  "tx state, vector"
vector 821  ErlangenLTE.pgw.ppp[49].queue  queueLength:vector  ETV
attr interpolationmode  sample-hold
attr title  "queue length, vector"
vector 822  ErlangenLTE.pgw.ppp[49].ppp  txState:vector  ETV
attr interpolationmode  sample-hold
attr title  "tx state, vector"
vector 832  ErlangenLTE.pgw.ppp[50].queue  queueLength:vector  ETV
attr interpolationmode  sample-hold
attr title  "queue length, vector"
vector 833  ErlangenLTE.pgw.ppp[50].ppp  txState:vector  ETV
attr interpolationmode  sample-hold
attr title  "tx state, vector"
vector 843  ErlangenLTE.pgw.ppp[51].queue  queueLength:vector  ETV
attr interpolationmode  sample-hold
attr title  "queue length, vector"
vector 844  ErlangenLTE.pgw.ppp[51].ppp  txState:vector  ETV
attr interpolationmode  sample-hold
attr title  "tx state, vector"
vector 854  ErlangenLTE.pgw.ppp[52].queue  queueLength:vector  ETV
attr interpolationmode  sample-hold
attr title  "queue length, vector"
vector 855  ErlangenLTE.pgw.ppp[52].ppp  txState:vector  ETV
attr interpolationmode  sample-hold
attr title  "tx state, vector"
vector 865  ErlangenLTE.pgw.ppp[53].queue  queueLength:vector  ETV
attr interpolationmode  sample-hold
attr title  "queue length, vector"
vector 866  ErlangenLTE.pgw.ppp[53].ppp  txState:vector  ETV
attr interpolationmode  sample-hold
attr title  "tx state, vector"
vector 876  ErlangenLTE.pgw.ppp[54].queue  queueLength:vector  ETV
attr interpolationmode  sample-hold
attr title  "queue length, vector"
vector 877  ErlangenLTE.pgw.ppp[54].ppp  txState:vector  ETV
attr interpolationmode  sample-hold
attr title  "tx state, vector"
vector 887  ErlangenLTE.pgw.ppp[55].queue  queueLength:vector  ETV
attr interpolationmode  sample-hold
attr title  "queue length, vector"
vector 888  ErlangenLTE.pgw.ppp[55].ppp  txState:vector  ETV
attr interpolationmode  sample-hold
attr title  "tx state, vector"
vector 898  ErlangenLTE.pgw.ppp[56].queue  queueLength:vector  ETV
attr interpolationmode  sample-hold
attr title  "queue length, vector"
vector 899  ErlangenLTE.pgw.ppp[56].ppp  txState:vector  ETV
attr interpolationmode  sample-hold
attr title  "tx state, vector"
vector 909  ErlangenLTE.pgw.ppp[57].queue  queueLength:vector  ETV
attr interpolationmode  sample-hold
attr title  "queue length, vector"
vector 910  ErlangenLTE.pgw.ppp[57].ppp  txState:vector  ETV
attr interpolationmode  sample-hold
attr title  "tx state, vector"
vector 920  ErlangenLTE.pgw.ppp[58].queue  queueLength:vector  ETV
attr interpolationmode  sample-hold
attr title  "queue length, vector"
vector 921  ErlangenLTE.pgw.ppp[58].ppp  txState:vector  ETV
attr interpolationmode  sample-hold
attr title  "tx state, vector"
vector 931  ErlangenLTE.pgw.ppp[59].queue  queueLength:vector  ETV
attr interpolationmode  sample-hold
attr title  "queue length, vector"
vector 932  ErlangenLTE.pgw.ppp[59].ppp  txState:vector  ETV
attr interpolationmode  sample-hold
attr title  "tx state, vector"
vector 942  ErlangenLTE.pgw.ppp[60].queue  queueLength:vector  ETV
attr interpolationmode  sample-hold
attr title  "queue length, vector"
vector 943  ErlangenLTE.pgw.ppp[60].ppp  txState:vector  ETV
attr interpolationmode  sample-hold
attr title  "tx state, vector"
vector 953  ErlangenLTE.pgw.ppp[61].queue  queueLength:vector  ETV
attr interpolationmode  sample-hold
attr title  "queue length, vector"
vector 954  ErlangenLTE.pgw.ppp[61].ppp  txState:vector  ETV
attr interpolationmode  sample-hold
attr title  "tx state, vector"
vector 964  ErlangenLTE.pgw.ppp[62].queue  queueLength:vector  ETV
attr interpolationmode  sample-hold
attr title  "queue length, vector"
vector 965  ErlangenLTE.pgw.ppp[62].ppp  txState:vector  ETV
attr interpolationmode  sample-hold
attr title  "tx state, vector"
vector 975  ErlangenLTE.pgw.ppp[63].queue  queueLength:vector  ETV
attr interpolationmode  sample-hold
attr title  "queue length, vector"
vector 976  ErlangenLTE.pgw.ppp[63].ppp  txState:vector  ETV
attr interpolationmode  sample-hold
attr title  "tx state, vector"
vector 986  ErlangenLTE.pgw.ppp[64].queue  queueLength:vector  ETV
attr interpolationmode  sample-hold
[...]
294	45985155 32064 87823405 90298273 521.553194770173 536.037549514704 1002 0 1 501 501
295	46017219 17034 87823405 90298272 521.553194770173 536.037549506464 501 103 103 51603 5315109
299	46034253 16533 87823405 90298272 521.553194770173 536.037549506464 501 96 96 48096 4617216
323	46050786 21667 84426205 87820111 501.660579030816 521.533194770173 658 96 96 63168 6064128
325	46072453 21009 84426205 87820111 501.660579030816 521.533194770173 658 0 0 0 0
327	46093462 42018 84426206 87820113 501.660579030816 521.533194778413 1316 0 1 658 658
328	46135480 22325 84426206 87820112 501.660579030816 521.533194770173 658 103 103 67774 6980722
332	46157805 21667 84426206 87820112 501.660579030816 521.533194770173 658 96 96 63168 6064128
345	46179472 6204 89787155 90661961 533.061090577259 538.163908743168 188 96 96 18048 1732608
347	46185676 6016 89787155 90661961 533.061090577259 538.163908743168 188 0 0 0 0
349	46191692 12032 89787156 90661963 533.061090577259 538.163908751408 376 0 1 188 188
350	46203724 6392 89787156 90661962 533.061090577259 538.163908743168 188 103 103 19364 1994492
354	46210116 6204 89787156 90661962 533.061090577259 538.163908743168 188 96 96 18048 1732608
785	46216320 22803 90129980 92235742 535.057549506464 547.456432150429 691 96 96 66336 6368256
787	46239123 22112 90129980 92235742 535.057549506464 547.456432150429 691 0 0 0 0
789	46261235 44224 90129981 92235744 535.057549506464 547.456432158669 1382 0 1 691 691
790	46305459 23494 90129981 92235743 535.057549506464 547.456432150429 691 103 103 71173 7330819
794	46328953 22803 90129981 92235743 535.057549506464 547.456432150429 691 96 96 66336 6368256
972	46351756 31176 84425812 89783813 501.659908176109 533.041090577259 949 96 96 91104 8745984
974	46382932 30227 84425812 89783813 501.659908176109 533.041090577259 949 0 0 0 0
976	46413159 60507 84425813 89783815 501.659908176109 533.041090585499 1898 0 1 949 949
977	46473666 32125 84425813 89783814 501.659908176109 533.041090577259 949 103 103 97747 10067941
981	46505791 31176 84425813 89783814 501.659908176109 533.041090577259 949 96 96 91104 8745984
1011	46536967 163273 84425807 92235737 501.659908176109 547.456432150429 4808 75 75 360600 27045000
1015	46700240 163273 84425807 92235737 501.659908176109 547.456432150429 4808 68 68 326944 22232192
1016	46863513 101370 84425810 92235740 501.659908176109 547.456432150429 2987 76 76 227012 17252912
1262	46964883 17006 87822952 90287226 521.55001 535.997549564704 501 68 68 34068 2316624
1265	46981889 17006 87822952 90287226 521.55001 535.997549564704 501 69 69 34569 2385261
1266	46998895 23029 87823832 90292655 521.557 536.003 825 0.004 1.503 5.0629999999999 2.275889
1284	47021924 37626 87822961 90287381 521.55001 535.999 1326 25 140 70788 4232862
1285	47059550 76267 87823247 90300064 521.552 536.048 3203 0 0 0 0
1286	47135817 19794 87823251 90287377 521.553 535.999 825 0 0 0 0
1287	47155611 21734 87823321 90287447 521.553 535.999 870 27 142 39797 2085599
1288	47177345 19827 87823251 90287377 521.553 535.999 825 0 15 1124 10498
1295	47197172 17535 87823407 90298274 521.553194828413 536.037549564704 501 103 103 51603 5315109
1299	47214707 17034 87823407 90298274 521.553194828413 536.037549564704 501 96 96 48096 4617216
1300	47231741 60 87822963 87847576 521.55001 521.70001005472 2 48 52 100 5008
1302	47231801 58 87822963 87847576 521.55001 521.70001005472 2 0 0 0 0
1304	47231859 122 87822964 87847578 521.55001 521.70001005912 4 0 1 2 2
1305	47231981 60 87822964 87847577 521.55001 521.70001005472 2 55 59 114 6506
1306	47232041 134 87814813 87855743 521.50001005472 521.75001010912 4 35 59 184 8956
1309	47232175 60 87822964 87847577 521.55001 521.70001005472 2 48 52 100 5008
1310	47232235 134 87814813 87855743 521.50001005472 521.75001010912 4 28 52 156 6576
1399	47232369 235 90123537 90333290 535.017549564704 536.25001005472 7 28 48 256 10048
1401	47232604 228 90123537 90333290 535.017549564704 536.25001005472 7 0 0 0 0
1403	47232832 456 90123538 90333292 535.017549564704 536.25001005912 14 0 1 7 7
1404	47233288 235 90123538 90333291 535.017549564704 536.25001005472 7 35 55 305 13975
1405	47233523 16861 90128981 92227474 535.05001005472 547.404347868331 496 35 59 17432 614368
1408	47250384 235 90123538 90333291 535.017549564704 536.25001005472 7 28 48 256 10048
1409	47250619 16861 90128981 92227474 535.05001005472 547.404347868331 496 28 52 13960 394624
1421	47267480 81 90120945 90292373 535.00001 536.00001 3 52 52 156 8112
1423	47267561 78 90120945 90292373 535.00001 536.00001 3 0 0 0 0
1425	47267639 174 90120946 90292375 535.00001 536.00001000472 6 0 1 3 3
1426	47267813 81 90120946 90292374 535.00001 536.00001 3 59 59 177 10443
1427	47267894 99 90153238 90325114 535.20001010912 536.20001010912 3 55 55 165 9075
1430	47267993 81 90120946 90292374 535.00001 536.00001 3 52 52 156 8112
1431	47268074 99 90153238 90325114 535.20001010912 536.20001010912 3 48 48 144 6912
1434	47268173 132 90123535 90298281 535.017549564704 536.037549564704 4 8 8 32 256
1435	47268305 33369 87816858 92227476 521.513194881213 547.404347868331 996 8 76 42036 2925456
1436	47301674 35856 87816858 92227476 521.513194881213 547.404347868331 996 1043 2038 1534338 2445984934
1439	47337530 32 87814818 87814818 521.50001005472 521.50001005472 1 2 2 2 4
1466	47337562 96 90128986 90300589 535.05001005472 536.05001005472 3 2 2 6 12
1747	47337658 22257 84426213 87809089 501.660579089056 521.493194828413 656 68 68 44608 3033344
1750	47359915 22257 84426213 87809089 501.660579089056 521.493194828413 656 69 69 45264 3123216
1751	47382172 18396 84426778 87809669 501.665 521.498 657 0.004 0.004 2.628 0.010512
1769	47400568 38682 84426216 87809103 501.660579089056 521.494 1313 25 71 91842 6428000
1770	47439250 94584 84426504 87822188 501.662 521.546 3972 0 0 0 0
1771	47533834 15768 84426225 87809099 501.661 521.494 657 0 0 0 0
1772	47549602 16425 84426299 87809169 501.661 521.494 657 27 73 47892 3493724
1773	47566027 16241 84426225 87809099 501.661 521.494 657 0 26 9960 175918
1780	47582268 22983 84426208 87820114 501.660579089056 521.533194828413 658 103 103 67774 6980722
1784	47605251 22325 84426208 87820114 501.660579089056 521.533194828413 658 96 96 63168 6064128
1785	47627576 128 87814810 87855740 521.50001 521.75001005472 4 28 52 156 6576
1787	47627704 124 87814810 87855740 521.50001 521.75001005472 4 0 0 0 0
1789	47627828 254 87814811 87855742 521.50001 521.75001005912 8 0 1 4 4
1790	47628082 128 87814811 87855741 521.50001 521.75001005472 4 35 59 184 8956
1791	47628210 66 87822966 87847579 521.55001005472 521.70001010912 2 55 59 114 6506
1794	47628276 128 87814811 87855741 521.50001 521.75001005472 4 28 52 156 6576
1795	47628404 66 87822966 87847579 521.55001005472 521.70001010912 2 48 52 100 5008
1930	47628470 66 87816851 87820121 521.513194828413 521.533194828413 2 8 8 16 128
1931	47628536 22325 84426210 87820116 501.660579089056 521.533194828413 658 76 76 50008 3800608
1932	47650861 23641 84426210 87820116 501.660579089056 521.533194828413 658 1801 2458 1401211 3007619629
1935	47674502 32 87822971 87822971 521.55001005472 521.55001005472 1 2 2 2 4
2271	47674534 6473 89785302 90661969 533.05001 538.163908801408 191 68 68 12988 883184
2274	47681007 6473 89785302 90661969 533.05001 538.163908801408 191 69 69 13179 909351
2275	47687480 10199 89786999 90662709 533.061 538.169 365 0.004 0.011 1.593 0.0077090000000001
2293	47697679 15597 89785314 90662130 533.05001 538.165 556 25 71 27088 1503636
2294	47713276 32952 89785869 90812638 533.054 539.048 1387 0 0 0 0
2295	47746228 8759 89785880 90662126 533.055 538.165 365 0 0 0 0
2296	47754987 9667 89785950 90662196 533.055 538.165 387 27 73 15647 699297
2297	47764654 8760 89785880 90662126 533.055 538.165 365 0 18 107 805
2304	47773414 6580 89787158 90661964 533.061090635499 538.163908801408 188 103 103 19364 1994492
2308	47779994 6392 89787158 90661964 533.061090635499 538.163908801408 188 96 96 18048 1732608
2331	47786386 27 90805092 90805092 539.00001 539.00001 1 52 52 52 2704
2333	47786413 26 90805092 90805092 539.00001 539.00001 1 0 0 0 0
2335	47786439 58 90805093 90805094 539.00001 539.00001000472 2 0 1 1 1
2336	47786497 27 90805093 90805093 539.00001 539.00001 1 59 59 59 3481
2337	47786524 33 90837150 90837150 539.20001010912 539.20001010912 1 55 55 55 3025
2340	47786557 27 90805093 90805093 539.00001 539.00001 1 52 52 52 2704
2341	47786584 33 90837150 90837150 539.20001010912 539.20001010912 1 48 48 48 2304
2364	47786617 33 90845186 90845186 539.25001005472 539.25001005472 1 48 48 48 2304
2366	47786650 32 90845186 90845186 539.25001005472 539.25001005472 1 0 0 0 0
2368	47786682 64 90845187 90845188 539.25001005472 539.25001005912 2 0 1 1 1
2369	47786746 33 90845187 90845187 539.25001005472 539.25001005472 1 55 55 55 3025
2370	47786779 33 90813140 90813140 539.05001005472 539.05001005472 1 59 59 59 3481
2373	47786812 33 90845187 90845187 539.25001005472 539.25001005472 1 48 48 48 2304
2374	47786845 33 90813140 90813140 539.05001005472 539.05001005472 1 52 52 52 2704
2397	47786878 27 89785317 89785317 533.05001 533.05001 1 52 52 52 2704
2399	47786905 26 89785317 89785317 533.05001 533.05001 1 0 0 0 0
2401	47786931 58 89785318 89785319 533.05001 533.05001000472 2 0 1 1 1
2402	47786989 27 89785318 89785318 533.05001 533.05001 1 59 59 59 3481
2403	47787016 33 89818289 89818289 533.25001010912 533.25001010912 1 55 55 55 3025
2406	47787049 27 89785318 89785318 533.05001 533.05001 1 52 52 52 2704
2407	47787076 33 89818289 89818289 533.25001010912 533.25001010912 1 48 48 48 2304
2408	47787109 33 89810067 89810067 533.20001005472 533.20001005472 1 48 48 48 2304
2410	47787142 32 89810067 89810067 533.20001005472 533.20001005472 1 0 0 0 0
2412	47787174 64 89810068 89810069 533.20001005472 533.20001005912 2 0 1 1 1
2413	47787238 33 89810068 89810068 533.20001005472 533.20001005472 1 55 55 55 3025
2414	47787271 135 89777130 89783828 533.00001005472 533.041090688299 4 35 59 164 7156
2417	47787406 33 89810068 89810068 533.20001005472 533.20001005472 1 48 48 48 2304
2418	47787439 135 89777130 89783828 533.00001005472 533.041090688299 4 28 52 136 5056
2488	47787574 6491 89777308 90661966 533.001090688299 538.163908801408 191 8 76 14312 1086080
2489	47794065 6685 89777308 90661966 533.001090688299 538.163908801408 191 295 485 74490 29631740
2507	47800750 32 90813145 90813145 539.05001005472 539.05001005472 1 2 2 2 4
2519	47800782 32 89777135 89777135 533.00001005472 533.00001005472 1 2 2 2 4
2540	47800814 12501 92255234 92255696 547.55001 547.55001 463 68 68 31484 2140912
2543	47813315 12501 92255234 92255696 547.55001 547.55001 463 69 69 31947 2204343
2562	47825816 12501 92256626 92257088 547.55001 547.55001 463 69 69 31947 2204343
2611	47838317 27 92257089 92257089 547.55001 547.55001 1 52 52 52 2704
2613	47838344 26 92257089 92257089 547.55001 547.55001 1 0 0 0 0
2615	47838370 58 92257090 92257091 547.55001 547.55001000472 2 0 1 1 1
2616	47838428 27 92257090 92257090 547.55001 547.55001 1 59 59 59 3481
2620	47838455 27 92257090 92257090 547.55001 547.55001 1 52 52 52 2704
2639	47838482 33 92247339 92247339 547.50001005472 547.50001005472 1 59 59 59 3481
2643	47838515 33 92247339 92247339 547.50001005472 547.50001005472 1 52 52 52 2704
2754	47838548 32 92247344 92247344 547.50001005472 547.50001005472 1 2 2 2 4
3663	47838580 33 92257092 92257092 547.55001005472 547.55001005472 1 59 59 59 3481
3667	47838613 33 92257092 92257092 547.55001005472 547.55001005472 1 52 52 52 2704
3818	47838646 32 92257097 92257097 547.55001005472 547.55001005472 1 2 2 2 4
4352	47838678 33 90837147 90837147 539.20001005472 539.20001005472 1 48 48 48 2304
4354	47838711 32 90837147 90837147 539.20001005472 539.20001005472 1 0 0 0 0
4356	47838743 64 90837148 90837149 539.20001005472 539.20001005912 2 0 1 1 1
4357	47838807 33 90837148 90837148 539.20001005472 539.20001005472 1 55 55 55 3025
4358	47838840 33 90805095 90805095 539.00001005472 539.00001005472 1 59 59 59 3481
4361	47838873 33 90837148 90837148 539.20001005472 539.20001005472 1 48 48 48 2304
4362	47838906 33 90805095 90805095 539.00001005472 539.00001005472 1 52 52 52 2704
4436	47838939 32 90805100 90805100 539.00001005472 539.00001005472 1 2 2 2 4
7261	47838971 33 89818286 89818286 533.25001005472 533.25001005472 1 48 48 48 2304
7263	47839004 32 89818286 89818286 533.25001005472 533.25001005472 1 0 0 0 0
7265	47839036 64 89818287 89818288 533.25001005472 533.25001005912 2 0 1 1 1
7266	47839100 33 89818287 89818287 533.25001005472 533.25001005472 1 55 55 55 3025
7267	47839133 33 89785320 89785320 533.05001005472 533.05001005472 1 59 59 59 3481
7270	47839166 33 89818287 89818287 533.25001005472 533.25001005472 1 48 48 48 2304
7271	47839199 33 89785320 89785320 533.05001005472 533.05001005472 1 52 52 52 2704
7376	47839232 32 89785325 89785325 533.05001005472 533.05001005472 1 2 2 2 4
7714	47839264 99 90153235 90325111 535.20001005472 536.20001005472 3 48 48 144 6912
7716	47839363 96 90153235 90325111 535.20001005472 536.20001005472 3 0 0 0 0
7718	47839459 192 90153236 90325113 535.20001005472 536.20001005912 6 0 1 3 3
7719	47839651 99 90153236 90325112 535.20001005472 536.20001005472 3 55 55 165 9075
7720	47839750 99 90120948 90292376 535.00001005472 536.00001005472 3 59 59 177 10443
7723	47839849 99 90153236 90325112 535.20001005472 536.20001005472 3 48 48 144 6912
7724	47839948 99 90120948 90292376 535.00001005472 536.00001005472 3 52 52 156 8112
7844	47840047 96 90120953 90292381 535.00001005472 536.00001005472 3 2 2 6 12
10357	47840143 7042 90128967 92235750 535.05001 547.456432208669 202 68 68 13736 934048
10360	47847185 7042 90128967 92235750 535.05001 547.456432208669 202 69 69 13938 961722
10361	47854227 9044 90129827 92236530 535.057 547.461 312 0.004 0.01 1.266 0.005244
10379	47863271 15071 90128976 92235806 535.05001 547.457 514 25 71 28500 1745568
10380	47878342 92559 90129262 92255231 535.052 547.55 3733 0 0 0 0
10381	47970901 7717 90129311 92235802 535.053 547.457 312 0 0 0 0
10382	47978618 8107 90129381 92235872 535.053 547.457 315 27 73 15336 851900
10383	47986725 7799 90129311 92235802 535.053 547.457 312 0 26 1614 33520
10390	47994524 24876 90129983 92235745 535.057549564704 547.456432208669 691 103 103 71173 7330819
10394	48019400 24185 90129983 92235745 535.057549564704 547.456432208669 691 96 96 66336 6368256
10395	48043585 17339 90128978 92227471 535.05001 547.404347815531 496 28 52 13960 394624
10397	48060924 16843 90128978 92227471 535.05001 547.404347815531 496 0 0 0 0
10399	48077767 33704 90128979 92227473 535.05001 547.404347818331 992 0 1 496 496
10400	48111471 17339 90128979 92227472 535.05001 547.404347815531 496 35 59 17432 614368
10401	48128810 242 90123540 90333293 535.017549617504 536.25001010912 7 35 55 305 13975
10404	48129052 17339 90128979 92227472 535.05001 547.404347815531 496 28 52 13960 394624
10405	48146391 242 90123540 90333293 535.017549617504 536.25001010912 7 28 48 256 10048
10417	48146633 28 90813137 90813137 539.05001 539.05001 1 52 52 52 2704
10419	48146661 27 90813137 90813137 539.05001 539.05001 1 0 0 0 0
10421	48146688 60 90813138 90813139 539.05001 539.05001000472 2 0 1 1 1
10422	48146748 28 90813138 90813138 539.05001 539.05001 1 59 59 59 3481
10423	48146776 34 90845189 90845189 539.25001010912 539.25001010912 1 55 55 55 3025
10426	48146810 28 90813138 90813138 539.05001 539.05001 1 52 52 52 2704
10427	48146838 34 90845189 90845189 539.25001010912 539.25001010912 1 48 48 48 2304
10428	48146872 28 92247336 92247336 547.50001 547.50001 1 52 52 52 2704
10430	48146900 27 92247336 92247336 547.50001 547.50001 1 0 0 0 0
10432	48146927 60 92247337 92247338 547.50001 547.50001000472 2 0 1 1 1
10433	48146987 28 92247337 92247337 547.50001 547.50001 1 59 59 59 3481
10437	48147015 28 92247337 92247337 547.50001 547.50001 1 52 52 52 2704
10540	48147043 16762 90208717 92227469 535.517549564704 547.404347815531 493 8 8 3944 31552
10541	48163805 24321 90123542 92235747 535.017549617504 547.456432208669 695 8 76 52548 3991472
10542	48188126 25715 90123542 92235747 535.017549617504 547.456432208669 695 1301 1995 1145360 1915528420
13796	48213841 33022 84425820 89769495 501.659908234349 532.981090635499 946 68 68 64328 4374304
13799	48246863 33022 84425820 89769495 501.659908234349 532.981090635499 946 69 69 65274 4503906
13800	48279885 51152 84426787 89771983 501.665 532.998 1776 0.004 0.095 9.7439999999995 0.076606000000003
13818	48331037 81600 84425823 89769722 501.659908234349 532.983 2816 25 71 134288 7321204
13819	48412637 193621 84426502 89784806 501.662 533.048 7809 0 0 0 0
13820	48606258 46708 84426114 89769718 501.66 532.983 1870 0 0 0 0
13821	48652966 66802 84426184 89771533 501.66 532.994 2577 27 73 104194 4568322
13822	48719768 46710 84426114 89769718 501.66 532.983 1870 0 14 125 787
13829	48766478 34076 84425815 89783816 501.659908234349 533.041090635499 949 103 103 97747 10067941
13833	48800554 33127 84425815 89783816 501.659908234349 533.041090635499 949 96 96 91104 8745984
13834	48833681 133 89777127 89783825 533.00001 533.041090635499 4 28 52 136 5056
13836	48833814 129 89777127 89783825 533.00001 533.041090635499 4 0 0 0 0
13838	48833943 264 89777128 89783827 533.00001 533.041090638299 8 0 1 4 4
13839	48834207 133 89777128 89783826 533.00001 533.041090635499 4 35 59 164 7156
13840	48834340 34 89810070 89810070 533.20001010912 533.20001010912 1 55 55 55 3025
13843	48834374 133 89777128 89783826 533.00001 533.041090635499 4 28 52 136 5056
13844	48834507 34 89810070 89810070 533.20001010912 533.20001010912 1 48 48 48 2304
14012	48834541 102 89777301 89783823 533.001090635499 533.041090635499 3 8 8 24 192
14013	48834643 33127 84425817 89783818 501.659908234349 533.041090635499 949 76 76 72124 5481424
14014	48867770 35025 84425817 89783818 501.659908234349 533.041090635499 949 4009 4957 4254367 19143549711
636081	48902795 32872 84427709 92236538 501.67 547.461 1218 40 40 48720 1948800
636083	48935667 32872 84427708 92236537 501.67 547.461 1218 48 48 58464 2806272
636084	48968539 35308 84427708 92236537 501.67 547.461 1218 7722 8939 10146549 84676404029
636088	49003847 32872 84427705 92236534 501.67 547.461 1218 69 69 84042 5798898
636089	49036719 32872 84427705 92236534 501.67 547.461 1218 68 68 82824 5632032
636095	49069591 83307 84426924 92236806 501.665 547.462 3225 0 1 824 824
636098	49152898 64366 84426924 92236806 501.665 547.462 2495 0 1 494 494
636101	49217264 12840 84427977 92042144 501.671 546.312 494 0 1 142 142
636104	49230104 3691 84438643 89772269 501.737 532.999 142 0 1 94 94
636107	49233795 2410 84919894 85460966 504.54 507.697 94 1 1 94 94
636110	49236205 86889 84426364 92236031 501.661 547.458 3225 27 73 133029 6027023
636111	49323094 64800 84426787 92236530 501.665 547.461 2401 25 71 91006 3897662
636112	49387894 83732 84426644 92236530 501.664 547.461 3225 0 0 0 0
636114	49471626 57 89785300 90813132 533.05001 539.05001 2 7 47 54 2258
636115	49471683 83711 84426363 92236030 501.661 547.458 3225 2 15 7300 23682
636119	49555394 31924 84426786 90302253 501.665 536.061 1183 40 40 47320 1892800
636121	49587318 31924 84426785 90302252 501.665 536.061 1183 48 48 56784 2725632
636122	49619242 34134 84426785 90302252 501.665 536.061 1183 844 2026 1697605 2574029367
636126	49653376 31924 84426782 90302249 501.665 536.061 1183 69 69 81627 5632263
636127	49685300 31924 84426782 90302249 501.665 536.061 1183 68 68 80444 5470192
636133	49717224 41020 84427063 90302524 501.666 536.062 1581 0 1 47 47
636136	49758244 39804 84427063 90302524 501.666 536.062 1534 0 1 47 47
636139	49798048 1216 88656368 90189982 526.443 535.429 47 0 0 0 0
636148	49799264 42537 84426506 90301734 501.662 536.058 1581 27 142 89837 5671819
636149	49841801 41391 84426778 90302245 501.665 536.061 1534 25 140 84764 5233576
636150	49883192 41078 84426778 90302245 501.665 536.061 1581 0 0 0 0
636152	49924270 142 87822950 92255232 521.55001 547.55001 5 2 47 106 4490
636153	49924412 41170 84426505 90301733 501.662 536.058 1581 2 15 8134 64638
