version 2
run VoIP-DL-0-20190131-10:12:50-14175
attr configname VoIP-DL
attr datetime 20190131-10:12:50
attr experiment VoIP-DL
attr inifile omnetpp.ini
attr iterationvars ""
attr iterationvarsf ""
attr measurement ""
attr network ErlangenLTE
attr processid 14175
attr repetition 0
attr replication #0
attr resultdir results
attr runnumber 0
attr seedset 0
param **.broadcastMessageInterval 1s
param **.car[*].macCellId 1
param **.car[*].masterId 1
param **.channelControl.alpha 1.0
param **.channelControl.carrierFrequency 2100e+6Hz
param **.channelControl.pMax 10W
param **.coreDebug false
param **.deployer.antennaCws "\"2;\""
param **.deployer.numRbDl 25
param **.deployer.numRbUl 25
param **.deployer.positionUpdateInterval 0.001s
param **.deployer.ruRange 50
param **.deployer.ruTxPower "\"50,50,50;\""
param **.dynamicCellAssociation true
param **.eNodeB*.mobility.constraintAreaMaxX 3000m
param **.eNodeB*.mobility.constraintAreaMaxY 3000m
param **.eNodeB*.mobility.constraintAreaMaxZ 0m
param **.eNodeB*.mobility.constraintAreaMinX 0m
param **.eNodeB*.mobility.constraintAreaMinY 0m
param **.eNodeB*.mobility.constraintAreaMinZ 0m
param **.eNodeB*.mobility.initFromDisplayString true
param **.eNodeB1.macCellId 1
param **.eNodeB1.macNodeId 1
param **.eNodeB10.macCellId 10
param **.eNodeB10.macNodeId 10
param **.eNodeB11.macCellId 11
param **.eNodeB11.macNodeId 11
param **.eNodeB12.macCellId 12
param **.eNodeB12.macNodeId 12
param **.eNodeB13.macCellId 13
param **.eNodeB13.macNodeId 13
param **.eNodeB14.macCellId 14
param **.eNodeB14.macNodeId 14
param **.eNodeB15.macCellId 15
param **.eNodeB15.macNodeId 15
param **.eNodeB16.macCellId 16
param **.eNodeB16.macNodeId 16
param **.eNodeB17.macCellId 17
param **.eNodeB17.macNodeId 17
param **.eNodeB18.macCellId 18
param **.eNodeB18.macNodeId 18
param **.eNodeB19.macCellId 19
param **.eNodeB19.macNodeId 19
param **.eNodeB2.macCellId 2
param **.eNodeB2.macNodeId 2
param **.eNodeB20.macCellId 20
param **.eNodeB20.macNodeId 20
param **.eNodeB21.macCellId 21
param **.eNodeB21.macNodeId 21
param **.eNodeB22.macCellId 22
param **.eNodeB22.macNodeId 22
param **.eNodeB23.macCellId 23
param **.eNodeB23.macNodeId 23
param **.eNodeB24.macCellId 24
param **.eNodeB24.macNodeId 24
param **.eNodeB25.macCellId 25
param **.eNodeB25.macNodeId 25
param **.eNodeB26.macCellId 26
param **.eNodeB26.macNodeId 26
param **.eNodeB27.macCellId 27
param **.eNodeB27.macNodeId 27
param **.eNodeB28.macCellId 28
param **.eNodeB28.macNodeId 28
param **.eNodeB29.macCellId 29
param **.eNodeB29.macNodeId 29
param **.eNodeB3.macCellId 3
param **.eNodeB3.macNodeId 3
param **.eNodeB30.macCellId 30
param **.eNodeB30.macNodeId 30
param **.eNodeB31.macCellId 31
param **.eNodeB31.macNodeId 31
param **.eNodeB32.macCellId 32
param **.eNodeB32.macNodeId 32
param **.eNodeB33.macCellId 33
param **.eNodeB33.macNodeId 33
param **.eNodeB34.macCellId 34
param **.eNodeB34.macNodeId 34
param **.eNodeB35.macCellId 35
param **.eNodeB35.macNodeId 35
param **.eNodeB36.macCellId 36
param **.eNodeB36.macNodeId 36
param **.eNodeB37.macCellId 37
param **.eNodeB37.macNodeId 37
param **.eNodeB38.macCellId 38
param **.eNodeB38.macNodeId 38
param **.eNodeB39.macCellId 39
param **.eNodeB39.macNodeId 39
param **.eNodeB4.macCellId 4
param **.eNodeB4.macNodeId 4
param **.eNodeB40.macCellId 40
param **.eNodeB40.macNodeId 40
param **.eNodeB41.macCellId 41
param **.eNodeB41.macNodeId 41
param **.eNodeB42.macCellId 42
param **.eNodeB42.macNodeId 42
param **.eNodeB43.macCellId 43
param **.eNodeB43.macNodeId 43
param **.eNodeB44.macCellId 44
param **.eNodeB44.macNodeId 44
param **.eNodeB45.macCellId 45
param **.eNodeB45.macNodeId 45
param **.eNodeB46.macCellId 46
param **.eNodeB46.macNodeId 46
param **.eNodeB47.macCellId 47
param **.eNodeB47.macNodeId 47
param **.eNodeB48.macCellId 48
param **.eNodeB48.macNodeId 48
param **.eNodeB49.macCellId 49
param **.eNodeB49.macNodeId 49
param **.eNodeB5.macCellId 5
param **.eNodeB5.macNodeId 5
param **.eNodeB50.macCellId 50
param **.eNodeB50.macNodeId 50
param **.eNodeB51.macCellId 51
param **.eNodeB51.macNodeId 51
param **.eNodeB52.macCellId 52
param **.eNodeB52.macNodeId 52
param **.eNodeB53.macCellId 53
param **.eNodeB53.macNodeId 53
param **.eNodeB54.macCellId 54
param **.eNodeB54.macNodeId 54
param **.eNodeB55.macCellId 55
param **.eNodeB55.macNodeId 55
param **.eNodeB56.macCellId 56
param **.eNodeB56.macNodeId 56
param **.eNodeB57.macCellId 57
param **.eNodeB57.macNodeId 57
param **.eNodeB58.macCellId 58
param **.eNodeB58.macNodeId 58
param **.eNodeB59.macCellId 59
param **.eNodeB59.macNodeId 59
param **.eNodeB6.macCellId 6
param **.eNodeB6.macNodeId 6
param **.eNodeB60.macCellId 60
param **.eNodeB60.macNodeId 60
param **.eNodeB61.macCellId 61
param **.eNodeB61.macNodeId 61
param **.eNodeB62.macCellId 62
param **.eNodeB62.macNodeId 62
param **.eNodeB63.macCellId 63
param **.eNodeB63.macNodeId 63
param **.eNodeB64.macCellId 64
param **.eNodeB64.macNodeId 64
param **.eNodeB65.macCellId 65
param **.eNodeB65.macNodeId 65
param **.eNodeB66.macCellId 66
param **.eNodeB66.macNodeId 66
param **.eNodeB7.macCellId 7
param **.eNodeB7.macNodeId 7
param **.eNodeB8.macCellId 8
param **.eNodeB8.macNodeId 8
param **.eNodeB9.macCellId 9
param **.eNodeB9.macNodeId 9
param **.eNodeBCount 66
param **.enableHandover false
param **.fbDelay 1
param **.feedbackComputation "xmldoc(\"config_channel.xml\")"
param **.feedbackGeneratorType "\"IDEAL\""
param **.feedbackType "\"ALLBANDS\""
param **.lteNic.phy.channelModel "xmldoc(\"config_channel.xml\")"
param **.maxHarqRtx 3
param **.numBands 25
param **.numUe 250
param **.rbAllocationType "\"localized\""
param **.routingRecorder.enabled false
param **.sctp.enableHeartbeats false
param **.sctp.nagleEnabled false
param *.annotations.draw true
param *.car[*].configurator.mcastGroups "\"224.0.0.10\""
param *.car[*].mobilityType "\"VeinsInetMobility\""
param *.car[*].numUdpApps 1
param *.car[*].udpApp[0].typename "\"VoIPReceiver\""
param *.eNodeB*.x2App[*].server.localPort "5000 + ancestorIndex(1)"
param *.eNodeB1.numX2Apps 12
param *.eNodeB1.x2App[0].client.connectAddress "\"eNodeB22%x2ppp0\""
param *.eNodeB1.x2App[10].client.connectAddress "\"eNodeB54%x2ppp0\""
param *.eNodeB1.x2App[11].client.connectAddress "\"eNodeB66%x2ppp0\""
param *.eNodeB1.x2App[1].client.connectAddress "\"eNodeB41%x2ppp0\""
param *.eNodeB1.x2App[2].client.connectAddress "\"eNodeB50%x2ppp0\""
param *.eNodeB1.x2App[3].client.connectAddress "\"eNodeB6%x2ppp0\""
param *.eNodeB1.x2App[4].client.connectAddress "\"eNodeB11%x2ppp0\""
param *.eNodeB1.x2App[5].client.connectAddress "\"eNodeB14%x2ppp0\""
param *.eNodeB1.x2App[6].client.connectAddress "\"eNodeB37%x2ppp0\""
param *.eNodeB1.x2App[7].client.connectAddress "\"eNodeB42%x2ppp0\""
param *.eNodeB1.x2App[8].client.connectAddress "\"eNodeB43%x2ppp0\""
param *.eNodeB1.x2App[9].client.connectAddress "\"eNodeB45%x2ppp0\""
param *.eNodeB10.numX2Apps 11
param *.eNodeB10.x2App[0].client.connectAddress "\"eNodeB7%x2ppp2\""
param *.eNodeB10.x2App[10].client.connectAddress "\"eNodeB64%x2ppp0\""
param *.eNodeB10.x2App[1].client.connectAddress "\"eNodeB8%x2ppp1\""
param *.eNodeB10.x2App[2].client.connectAddress "\"eNodeB13%x2ppp2\""
param *.eNodeB10.x2App[3].client.connectAddress "\"eNodeB57%x2ppp2\""
param *.eNodeB10.x2App[4].client.connectAddress "\"eNodeB63%x2ppp2\""
param *.eNodeB10.x2App[5].client.connectAddress "\"eNodeB28%x2ppp0\""
param *.eNodeB10.x2App[6].client.connectAddress "\"eNodeB31%x2ppp2\""
param *.eNodeB10.x2App[7].client.connectAddress "\"eNodeB35%x2ppp2\""
param *.eNodeB10.x2App[8].client.connectAddress "\"eNodeB47%x2ppp3\""
param *.eNodeB10.x2App[9].client.connectAddress "\"eNodeB60%x2ppp0\""
param *.eNodeB11.numX2Apps 6
param *.eNodeB11.x2App[0].client.connectAddress "\"eNodeB1%x2ppp1\""
param *.eNodeB11.x2App[1].client.connectAddress "\"eNodeB22%x2ppp1\""
param *.eNodeB11.x2App[2].client.connectAddress "\"eNodeB40%x2ppp0\""
param *.eNodeB11.x2App[3].client.connectAddress "\"eNodeB54%x2ppp1\""
param *.eNodeB11.x2App[4].client.connectAddress "\"eNodeB14%x2ppp2\""
param *.eNodeB11.x2App[5].client.connectAddress "\"eNodeB66%x2ppp3\""
param *.eNodeB12.numX2Apps 8
param *.eNodeB12.x2App[0].client.connectAddress "\"eNodeB3%x2ppp0\""
param *.eNodeB12.x2App[1].client.connectAddress "\"eNodeB30%x2ppp1\""
param *.eNodeB12.x2App[2].client.connectAddress "\"eNodeB62%x2ppp1\""
param *.eNodeB12.x2App[3].client.connectAddress "\"eNodeB32%x2ppp2\""
param *.eNodeB12.x2App[4].client.connectAddress "\"eNodeB38%x2ppp0\""
param *.eNodeB12.x2App[5].client.connectAddress "\"eNodeB44%x2ppp0\""
param *.eNodeB12.x2App[6].client.connectAddress "\"eNodeB46%x2ppp2\""
param *.eNodeB12.x2App[7].client.connectAddress "\"eNodeB55%x2ppp2\""
param *.eNodeB13.numX2Apps 9
param *.eNodeB13.x2App[0].client.connectAddress "\"eNodeB7%x2ppp3\""
param *.eNodeB13.x2App[1].client.connectAddress "\"eNodeB8%x2ppp2\""
param *.eNodeB13.x2App[2].client.connectAddress "\"eNodeB10%x2ppp2\""
param *.eNodeB13.x2App[3].client.connectAddress "\"eNodeB31%x2ppp3\""
param *.eNodeB13.x2App[4].client.connectAddress "\"eNodeB63%x2ppp3\""
param *.eNodeB13.x2App[5].client.connectAddress "\"eNodeB28%x2ppp1\""
param *.eNodeB13.x2App[6].client.connectAddress "\"eNodeB35%x2ppp3\""
param *.eNodeB13.x2App[7].client.connectAddress "\"eNodeB47%x2ppp4\""
param *.eNodeB13.x2App[8].client.connectAddress "\"eNodeB57%x2ppp3\""
param *.eNodeB14.numX2Apps 14
param *.eNodeB14.x2App[0].client.connectAddress "\"eNodeB1%x2ppp2\""
param *.eNodeB14.x2App[10].client.connectAddress "\"eNodeB45%x2ppp2\""
param *.eNodeB14.x2App[11].client.connectAddress "\"eNodeB50%x2ppp2\""
param *.eNodeB14.x2App[12].client.connectAddress "\"eNodeB54%x2ppp2\""
param *.eNodeB14.x2App[13].client.connectAddress "\"eNodeB58%x2ppp1\""
param *.eNodeB14.x2App[1].client.connectAddress "\"eNodeB6%x2ppp1\""
param *.eNodeB14.x2App[2].client.connectAddress "\"eNodeB11%x2ppp1\""
param *.eNodeB14.x2App[3].client.connectAddress "\"eNodeB41%x2ppp2\""
param *.eNodeB14.x2App[4].client.connectAddress "\"eNodeB66%x2ppp4\""
param *.eNodeB14.x2App[5].client.connectAddress "\"eNodeB22%x2ppp2\""
param *.eNodeB14.x2App[6].client.connectAddress "\"eNodeB27%x2ppp2\""
param *.eNodeB14.x2App[7].client.connectAddress "\"eNodeB37%x2ppp2\""
param *.eNodeB14.x2App[8].client.connectAddress "\"eNodeB42%x2ppp2\""
param *.eNodeB14.x2App[9].client.connectAddress "\"eNodeB43%x2ppp1\""
param *.eNodeB15.numX2Apps 6
param *.eNodeB15.x2App[0].client.connectAddress "\"eNodeB28%x2ppp2\""
param *.eNodeB15.x2App[1].client.connectAddress "\"eNodeB60%x2ppp1\""
param *.eNodeB15.x2App[2].client.connectAddress "\"eNodeB64%x2ppp1\""
param *.eNodeB15.x2App[3].client.connectAddress "\"eNodeB24%x2ppp0\""
param *.eNodeB15.x2App[4].client.connectAddress "\"eNodeB59%x2ppp0\""
param *.eNodeB15.x2App[5].client.connectAddress "\"eNodeB16%x2ppp0\""
param *.eNodeB16.numX2Apps 3
param *.eNodeB16.x2App[0].client.connectAddress "\"eNodeB15%x2ppp0\""
param *.eNodeB16.x2App[1].client.connectAddress "\"eNodeB59%x2ppp1\""
param *.eNodeB16.x2App[2].client.connectAddress "\"eNodeB61%x2ppp0\""
param *.eNodeB17.numX2Apps 4
param *.eNodeB17.x2App[0].client.connectAddress "\"eNodeB4%x2ppp0\""
param *.eNodeB17.x2App[1].client.connectAddress "\"eNodeB20%x2ppp1\""
param *.eNodeB17.x2App[2].client.connectAddress "\"eNodeB49%x2ppp1\""
param *.eNodeB17.x2App[3].client.connectAddress "\"eNodeB56%x2ppp0\""
param *.eNodeB18.numX2Apps 3
param *.eNodeB18.x2App[0].client.connectAddress "\"eNodeB19%x2ppp0\""
param *.eNodeB18.x2App[1].client.connectAddress "\"eNodeB40%x2ppp1\""
param *.eNodeB18.x2App[2].client.connectAddress "\"eNodeB48%x2ppp0\""
param *.eNodeB19.numX2Apps 5
param *.eNodeB19.x2App[0].client.connectAddress "\"eNodeB18%x2ppp0\""
param *.eNodeB19.x2App[1].client.connectAddress "\"eNodeB35%x2ppp4\""
param *.eNodeB19.x2App[2].client.connectAddress "\"eNodeB48%x2ppp1\""
param *.eNodeB19.x2App[3].client.connectAddress "\"eNodeB40%x2ppp2\""
param *.eNodeB19.x2App[4].client.connectAddress "\"eNodeB58%x2ppp2\""
param *.eNodeB2.numX2Apps 6
param *.eNodeB2.x2App[0].client.connectAddress "\"eNodeB5%x2ppp0\""
param *.eNodeB2.x2App[1].client.connectAddress "\"eNodeB7%x2ppp0\""
param *.eNodeB2.x2App[2].client.connectAddress "\"eNodeB32%x2ppp0\""
param *.eNodeB2.x2App[3].client.connectAddress "\"eNodeB25%x2ppp0\""
param *.eNodeB2.x2App[4].client.connectAddress "\"eNodeB46%x2ppp0\""
param *.eNodeB2.x2App[5].client.connectAddress "\"eNodeB47%x2ppp0\""
param *.eNodeB20.numX2Apps 4
param *.eNodeB20.x2App[0].client.connectAddress "\"eNodeB4%x2ppp1\""
param *.eNodeB20.x2App[1].client.connectAddress "\"eNodeB17%x2ppp1\""
param *.eNodeB20.x2App[2].client.connectAddress "\"eNodeB49%x2ppp2\""
param *.eNodeB20.x2App[3].client.connectAddress "\"eNodeB55%x2ppp3\""
param *.eNodeB21.numX2Apps 3
param *.eNodeB21.x2App[0].client.connectAddress "\"eNodeB23%x2ppp0\""
param *.eNodeB21.x2App[1].client.connectAddress "\"eNodeB36%x2ppp0\""
param *.eNodeB21.x2App[2].client.connectAddress "\"eNodeB38%x2ppp1\""
param *.eNodeB22.numX2Apps 10
param *.eNodeB22.x2App[0].client.connectAddress "\"eNodeB1%x2ppp3\""
param *.eNodeB22.x2App[1].client.connectAddress "\"eNodeB11%x2ppp2\""
param *.eNodeB22.x2App[2].client.connectAddress "\"eNodeB14%x2ppp3\""
param *.eNodeB22.x2App[3].client.connectAddress "\"eNodeB54%x2ppp3\""
param *.eNodeB22.x2App[4].client.connectAddress "\"eNodeB37%x2ppp3\""
param *.eNodeB22.x2App[5].client.connectAddress "\"eNodeB40%x2ppp3\""
param *.eNodeB22.x2App[6].client.connectAddress "\"eNodeB41%x2ppp3\""
param *.eNodeB22.x2App[7].client.connectAddress "\"eNodeB43%x2ppp2\""
param *.eNodeB22.x2App[8].client.connectAddress "\"eNodeB50%x2ppp3\""
param *.eNodeB22.x2App[9].client.connectAddress "\"eNodeB66%x2ppp5\""
param *.eNodeB23.numX2Apps 4
param *.eNodeB23.x2App[0].client.connectAddress "\"eNodeB21%x2ppp0\""
param *.eNodeB23.x2App[1].client.connectAddress "\"eNodeB36%x2ppp1\""
param *.eNodeB23.x2App[2].client.connectAddress "\"eNodeB38%x2ppp2\""
param *.eNodeB23.x2App[3].client.connectAddress "\"eNodeB44%x2ppp1\""
param *.eNodeB24.numX2Apps 6
param *.eNodeB24.x2App[0].client.connectAddress "\"eNodeB15%x2ppp1\""
param *.eNodeB24.x2App[1].client.connectAddress "\"eNodeB59%x2ppp2\""
param *.eNodeB24.x2App[2].client.connectAddress "\"eNodeB60%x2ppp2\""
param *.eNodeB24.x2App[3].client.connectAddress "\"eNodeB65%x2ppp0\""
param *.eNodeB24.x2App[4].client.connectAddress "\"eNodeB28%x2ppp3\""
param *.eNodeB24.x2App[5].client.connectAddress "\"eNodeB39%x2ppp0\""
param *.eNodeB25.numX2Apps 6
param *.eNodeB25.x2App[0].client.connectAddress "\"eNodeB2%x2ppp2\""
param *.eNodeB25.x2App[1].client.connectAddress "\"eNodeB5%x2ppp2\""
param *.eNodeB25.x2App[2].client.connectAddress "\"eNodeB46%x2ppp3\""
param *.eNodeB25.x2App[3].client.connectAddress "\"eNodeB52%x2ppp1\""
param *.eNodeB25.x2App[4].client.connectAddress "\"eNodeB29%x2ppp1\""
param *.eNodeB25.x2App[5].client.connectAddress "\"eNodeB53%x2ppp3\""
param *.eNodeB26.numX2Apps 3
param *.eNodeB26.x2App[0].client.connectAddress "\"eNodeB39%x2ppp1\""
param *.eNodeB26.x2App[1].client.connectAddress "\"eNodeB59%x2ppp3\""
param *.eNodeB26.x2App[2].client.connectAddress "\"eNodeB61%x2ppp1\""
param *.eNodeB27.numX2Apps 9
param *.eNodeB27.x2App[0].client.connectAddress "\"eNodeB6%x2ppp2\""
param *.eNodeB27.x2App[1].client.connectAddress "\"eNodeB9%x2ppp1\""
param *.eNodeB27.x2App[2].client.connectAddress "\"eNodeB14%x2ppp4\""
param *.eNodeB27.x2App[3].client.connectAddress "\"eNodeB34%x2ppp3\""
param *.eNodeB27.x2App[4].client.connectAddress "\"eNodeB58%x2ppp3\""
param *.eNodeB27.x2App[5].client.connectAddress "\"eNodeB41%x2ppp4\""
param *.eNodeB27.x2App[6].client.connectAddress "\"eNodeB45%x2ppp3\""
param *.eNodeB27.x2App[7].client.connectAddress "\"eNodeB53%x2ppp4\""
param *.eNodeB27.x2App[8].client.connectAddress "\"eNodeB66%x2ppp6\""
param *.eNodeB28.numX2Apps 11
param *.eNodeB28.x2App[0].client.connectAddress "\"eNodeB10%x2ppp3\""
param *.eNodeB28.x2App[10].client.connectAddress "\"eNodeB65%x2ppp1\""
param *.eNodeB28.x2App[1].client.connectAddress "\"eNodeB13%x2ppp3\""
param *.eNodeB28.x2App[2].client.connectAddress "\"eNodeB15%x2ppp2\""
param *.eNodeB28.x2App[3].client.connectAddress "\"eNodeB24%x2ppp1\""
param *.eNodeB28.x2App[4].client.connectAddress "\"eNodeB60%x2ppp3\""
param *.eNodeB28.x2App[5].client.connectAddress "\"eNodeB64%x2ppp2\""
param *.eNodeB28.x2App[6].client.connectAddress "\"eNodeB31%x2ppp4\""
param *.eNodeB28.x2App[7].client.connectAddress "\"eNodeB57%x2ppp4\""
param *.eNodeB28.x2App[8].client.connectAddress "\"eNodeB59%x2ppp4\""
param *.eNodeB28.x2App[9].client.connectAddress "\"eNodeB63%x2ppp4\""
param *.eNodeB29.numX2Apps 8
param *.eNodeB29.x2App[0].client.connectAddress "\"eNodeB6%x2ppp3\""
param *.eNodeB29.x2App[1].client.connectAddress "\"eNodeB25%x2ppp2\""
param *.eNodeB29.x2App[2].client.connectAddress "\"eNodeB51%x2ppp1\""
param *.eNodeB29.x2App[3].client.connectAddress "\"eNodeB52%x2ppp2\""
param *.eNodeB29.x2App[4].client.connectAddress "\"eNodeB53%x2ppp5\""
param *.eNodeB29.x2App[5].client.connectAddress "\"eNodeB33%x2ppp1\""
param *.eNodeB29.x2App[6].client.connectAddress "\"eNodeB34%x2ppp4\""
param *.eNodeB29.x2App[7].client.connectAddress "\"eNodeB49%x2ppp3\""
param *.eNodeB3.numX2Apps 6
param *.eNodeB3.x2App[0].client.connectAddress "\"eNodeB12%x2ppp0\""
param *.eNodeB3.x2App[1].client.connectAddress "\"eNodeB46%x2ppp1\""
param *.eNodeB3.x2App[2].client.connectAddress "\"eNodeB62%x2ppp0\""
param *.eNodeB3.x2App[3].client.connectAddress "\"eNodeB30%x2ppp0\""
param *.eNodeB3.x2App[4].client.connectAddress "\"eNodeB32%x2ppp1\""
param *.eNodeB3.x2App[5].client.connectAddress "\"eNodeB55%x2ppp0\""
param *.eNodeB30.numX2Apps 7
param *.eNodeB30.x2App[0].client.connectAddress "\"eNodeB3%x2ppp1\""
param *.eNodeB30.x2App[1].client.connectAddress "\"eNodeB12%x2ppp1\""
param *.eNodeB30.x2App[2].client.connectAddress "\"eNodeB32%x2ppp3\""
param *.eNodeB30.x2App[3].client.connectAddress "\"eNodeB62%x2ppp2\""
param *.eNodeB30.x2App[4].client.connectAddress "\"eNodeB38%x2ppp3\""
param *.eNodeB30.x2App[5].client.connectAddress "\"eNodeB44%x2ppp2\""
param *.eNodeB30.x2App[6].client.connectAddress "\"eNodeB46%x2ppp4\""
param *.eNodeB31.numX2Apps 9
param *.eNodeB31.x2App[0].client.connectAddress "\"eNodeB7%x2ppp4\""
param *.eNodeB31.x2App[1].client.connectAddress "\"eNodeB8%x2ppp3\""
param *.eNodeB31.x2App[2].client.connectAddress "\"eNodeB10%x2ppp4\""
param *.eNodeB31.x2App[3].client.connectAddress "\"eNodeB13%x2ppp4\""
param *.eNodeB31.x2App[4].client.connectAddress "\"eNodeB28%x2ppp4\""
param *.eNodeB31.x2App[5].client.connectAddress "\"eNodeB63%x2ppp5\""
param *.eNodeB31.x2App[6].client.connectAddress "\"eNodeB35%x2ppp5\""
param *.eNodeB31.x2App[7].client.connectAddress "\"eNodeB47%x2ppp5\""
param *.eNodeB31.x2App[8].client.connectAddress "\"eNodeB57%x2ppp5\""
param *.eNodeB32.numX2Apps 7
param *.eNodeB32.x2App[0].client.connectAddress "\"eNodeB2%x2ppp3\""
param *.eNodeB32.x2App[1].client.connectAddress "\"eNodeB3%x2ppp2\""
param *.eNodeB32.x2App[2].client.connectAddress "\"eNodeB12%x2ppp2\""
param *.eNodeB32.x2App[3].client.connectAddress "\"eNodeB30%x2ppp2\""
param *.eNodeB32.x2App[4].client.connectAddress "\"eNodeB46%x2ppp5\""
param *.eNodeB32.x2App[5].client.connectAddress "\"eNodeB55%x2ppp4\""
param *.eNodeB32.x2App[6].client.connectAddress "\"eNodeB62%x2ppp3\""
param *.eNodeB33.numX2Apps 7
param *.eNodeB33.x2App[0].client.connectAddress "\"eNodeB6%x2ppp4\""
param *.eNodeB33.x2App[1].client.connectAddress "\"eNodeB29%x2ppp2\""
param *.eNodeB33.x2App[2].client.connectAddress "\"eNodeB45%x2ppp4\""
param *.eNodeB33.x2App[3].client.connectAddress "\"eNodeB51%x2ppp2\""
param *.eNodeB33.x2App[4].client.connectAddress "\"eNodeB37%x2ppp4\""
param *.eNodeB33.x2App[5].client.connectAddress "\"eNodeB42%x2ppp3\""
param *.eNodeB33.x2App[6].client.connectAddress "\"eNodeB53%x2ppp6\""
param *.eNodeB34.numX2Apps 9
param *.eNodeB34.x2App[0].client.connectAddress "\"eNodeB5%x2ppp3\""
param *.eNodeB34.x2App[1].client.connectAddress "\"eNodeB6%x2ppp5\""
param *.eNodeB34.x2App[2].client.connectAddress "\"eNodeB9%x2ppp2\""
param *.eNodeB34.x2App[3].client.connectAddress "\"eNodeB27%x2ppp3\""
param *.eNodeB34.x2App[4].client.connectAddress "\"eNodeB29%x2ppp3\""
param *.eNodeB34.x2App[5].client.connectAddress "\"eNodeB53%x2ppp7\""
param *.eNodeB34.x2App[6].client.connectAddress "\"eNodeB45%x2ppp5\""
param *.eNodeB34.x2App[7].client.connectAddress "\"eNodeB52%x2ppp3\""
param *.eNodeB34.x2App[8].client.connectAddress "\"eNodeB58%x2ppp4\""
param *.eNodeB35.numX2Apps 11
param *.eNodeB35.x2App[0].client.connectAddress "\"eNodeB8%x2ppp4\""
param *.eNodeB35.x2App[10].client.connectAddress "\"eNodeB58%x2ppp5\""
param *.eNodeB35.x2App[1].client.connectAddress "\"eNodeB9%x2ppp3\""
param *.eNodeB35.x2App[2].client.connectAddress "\"eNodeB10%x2ppp5\""
param *.eNodeB35.x2App[3].client.connectAddress "\"eNodeB13%x2ppp5\""
param *.eNodeB35.x2App[4].client.connectAddress "\"eNodeB19%x2ppp1\""
param *.eNodeB35.x2App[5].client.connectAddress "\"eNodeB31%x2ppp5\""
param *.eNodeB35.x2App[6].client.connectAddress "\"eNodeB63%x2ppp6\""
param *.eNodeB35.x2App[7].client.connectAddress "\"eNodeB47%x2ppp6\""
param *.eNodeB35.x2App[8].client.connectAddress "\"eNodeB48%x2ppp2\""
param *.eNodeB35.x2App[9].client.connectAddress "\"eNodeB57%x2ppp6\""
param *.eNodeB36.numX2Apps 4
param *.eNodeB36.x2App[0].client.connectAddress "\"eNodeB21%x2ppp1\""
param *.eNodeB36.x2App[1].client.connectAddress "\"eNodeB23%x2ppp1\""
param *.eNodeB36.x2App[2].client.connectAddress "\"eNodeB38%x2ppp4\""
param *.eNodeB36.x2App[3].client.connectAddress "\"eNodeB44%x2ppp3\""
param *.eNodeB37.numX2Apps 11
param *.eNodeB37.x2App[0].client.connectAddress "\"eNodeB1%x2ppp4\""
param *.eNodeB37.x2App[10].client.connectAddress "\"eNodeB66%x2ppp7\""
param *.eNodeB37.x2App[1].client.connectAddress "\"eNodeB6%x2ppp6\""
param *.eNodeB37.x2App[2].client.connectAddress "\"eNodeB14%x2ppp5\""
param *.eNodeB37.x2App[3].client.connectAddress "\"eNodeB22%x2ppp3\""
param *.eNodeB37.x2App[4].client.connectAddress "\"eNodeB33%x2ppp2\""
param *.eNodeB37.x2App[5].client.connectAddress "\"eNodeB42%x2ppp4\""
param *.eNodeB37.x2App[6].client.connectAddress "\"eNodeB45%x2ppp6\""
param *.eNodeB37.x2App[7].client.connectAddress "\"eNodeB41%x2ppp5\""
param *.eNodeB37.x2App[8].client.connectAddress "\"eNodeB43%x2ppp3\""
param *.eNodeB37.x2App[9].client.connectAddress "\"eNodeB50%x2ppp4\""
param *.eNodeB38.numX2Apps 7
param *.eNodeB38.x2App[0].client.connectAddress "\"eNodeB12%x2ppp3\""
param *.eNodeB38.x2App[1].client.connectAddress "\"eNodeB21%x2ppp2\""
param *.eNodeB38.x2App[2].client.connectAddress "\"eNodeB23%x2ppp2\""
param *.eNodeB38.x2App[3].client.connectAddress "\"eNodeB30%x2ppp3\""
param *.eNodeB38.x2App[4].client.connectAddress "\"eNodeB36%x2ppp2\""
param *.eNodeB38.x2App[5].client.connectAddress "\"eNodeB44%x2ppp4\""
param *.eNodeB38.x2App[6].client.connectAddress "\"eNodeB62%x2ppp4\""
param *.eNodeB39.numX2Apps 4
param *.eNodeB39.x2App[0].client.connectAddress "\"eNodeB26%x2ppp0\""
param *.eNodeB39.x2App[1].client.connectAddress "\"eNodeB24%x2ppp2\""
param *.eNodeB39.x2App[2].client.connectAddress "\"eNodeB59%x2ppp5\""
param *.eNodeB39.x2App[3].client.connectAddress "\"eNodeB61%x2ppp2\""
param *.eNodeB4.numX2Apps 4
param *.eNodeB4.x2App[0].client.connectAddress "\"eNodeB17%x2ppp0\""
param *.eNodeB4.x2App[1].client.connectAddress "\"eNodeB20%x2ppp0\""
param *.eNodeB4.x2App[2].client.connectAddress "\"eNodeB49%x2ppp0\""
param *.eNodeB4.x2App[3].client.connectAddress "\"eNodeB55%x2ppp1\""
param *.eNodeB40.numX2Apps 7
param *.eNodeB40.x2App[0].client.connectAddress "\"eNodeB11%x2ppp3\""
param *.eNodeB40.x2App[1].client.connectAddress "\"eNodeB18%x2ppp1\""
param *.eNodeB40.x2App[2].client.connectAddress "\"eNodeB19%x2ppp2\""
param *.eNodeB40.x2App[3].client.connectAddress "\"eNodeB22%x2ppp4\""
param *.eNodeB40.x2App[4].client.connectAddress "\"eNodeB54%x2ppp4\""
param *.eNodeB40.x2App[5].client.connectAddress "\"eNodeB48%x2ppp3\""
param *.eNodeB40.x2App[6].client.connectAddress "\"eNodeB66%x2ppp8\""
param *.eNodeB41.numX2Apps 13
param *.eNodeB41.x2App[0].client.connectAddress "\"eNodeB1%x2ppp5\""
param *.eNodeB41.x2App[10].client.connectAddress "\"eNodeB54%x2ppp5\""
param *.eNodeB41.x2App[11].client.connectAddress "\"eNodeB58%x2ppp6\""
param *.eNodeB41.x2App[12].client.connectAddress "\"eNodeB66%x2ppp9\""
param *.eNodeB41.x2App[1].client.connectAddress "\"eNodeB6%x2ppp7\""
param *.eNodeB41.x2App[2].client.connectAddress "\"eNodeB14%x2ppp6\""
param *.eNodeB41.x2App[3].client.connectAddress "\"eNodeB22%x2ppp5\""
param *.eNodeB41.x2App[4].client.connectAddress "\"eNodeB27%x2ppp4\""
param *.eNodeB41.x2App[5].client.connectAddress "\"eNodeB37%x2ppp5\""
param *.eNodeB41.x2App[6].client.connectAddress "\"eNodeB50%x2ppp5\""
param *.eNodeB41.x2App[7].client.connectAddress "\"eNodeB42%x2ppp5\""
param *.eNodeB41.x2App[8].client.connectAddress "\"eNodeB43%x2ppp4\""
param *.eNodeB41.x2App[9].client.connectAddress "\"eNodeB45%x2ppp7\""
param *.eNodeB42.numX2Apps 9
param *.eNodeB42.x2App[0].client.connectAddress "\"eNodeB1%x2ppp6\""
param *.eNodeB42.x2App[1].client.connectAddress "\"eNodeB6%x2ppp8\""
param *.eNodeB42.x2App[2].client.connectAddress "\"eNodeB14%x2ppp7\""
param *.eNodeB42.x2App[3].client.connectAddress "\"eNodeB33%x2ppp3\""
param *.eNodeB42.x2App[4].client.connectAddress "\"eNodeB37%x2ppp6\""
param *.eNodeB42.x2App[5].client.connectAddress "\"eNodeB41%x2ppp6\""
param *.eNodeB42.x2App[6].client.connectAddress "\"eNodeB50%x2ppp6\""
param *.eNodeB42.x2App[7].client.connectAddress "\"eNodeB43%x2ppp5\""
param *.eNodeB42.x2App[8].client.connectAddress "\"eNodeB45%x2ppp8\""
param *.eNodeB43.numX2Apps 9
param *.eNodeB43.x2App[0].client.connectAddress "\"eNodeB1%x2ppp7\""
param *.eNodeB43.x2App[1].client.connectAddress "\"eNodeB14%x2ppp8\""
param *.eNodeB43.x2App[2].client.connectAddress "\"eNodeB22%x2ppp6\""
param *.eNodeB43.x2App[3].client.connectAddress "\"eNodeB37%x2ppp7\""
param *.eNodeB43.x2App[4].client.connectAddress "\"eNodeB41%x2ppp7\""
param *.eNodeB43.x2App[5].client.connectAddress "\"eNodeB42%x2ppp6\""
param *.eNodeB43.x2App[6].client.connectAddress "\"eNodeB50%x2ppp7\""
param *.eNodeB43.x2App[7].client.connectAddress "\"eNodeB45%x2ppp9\""
param *.eNodeB43.x2App[8].client.connectAddress "\"eNodeB66%x2ppp10\""
param *.eNodeB44.numX2Apps 6
param *.eNodeB44.x2App[0].client.connectAddress "\"eNodeB12%x2ppp4\""
param *.eNodeB44.x2App[1].client.connectAddress "\"eNodeB23%x2ppp3\""
param *.eNodeB44.x2App[2].client.connectAddress "\"eNodeB30%x2ppp4\""
param *.eNodeB44.x2App[3].client.connectAddress "\"eNodeB36%x2ppp3\""
param *.eNodeB44.x2App[4].client.connectAddress "\"eNodeB38%x2ppp5\""
param *.eNodeB44.x2App[5].client.connectAddress "\"eNodeB62%x2ppp5\""
param *.eNodeB45.numX2Apps 13
param *.eNodeB45.x2App[0].client.connectAddress "\"eNodeB1%x2ppp8\""
param *.eNodeB45.x2App[10].client.connectAddress "\"eNodeB50%x2ppp8\""
param *.eNodeB45.x2App[11].client.connectAddress "\"eNodeB53%x2ppp8\""
param *.eNodeB45.x2App[12].client.connectAddress "\"eNodeB66%x2ppp11\""
param *.eNodeB45.x2App[1].client.connectAddress "\"eNodeB6%x2ppp9\""
param *.eNodeB45.x2App[2].client.connectAddress "\"eNodeB14%x2ppp9\""
param *.eNodeB45.x2App[3].client.connectAddress "\"eNodeB27%x2ppp5\""
param *.eNodeB45.x2App[4].client.connectAddress "\"eNodeB33%x2ppp4\""
param *.eNodeB45.x2App[5].client.connectAddress "\"eNodeB34%x2ppp5\""
param *.eNodeB45.x2App[6].client.connectAddress "\"eNodeB37%x2ppp8\""
param *.eNodeB45.x2App[7].client.connectAddress "\"eNodeB41%x2ppp8\""
param *.eNodeB45.x2App[8].client.connectAddress "\"eNodeB42%x2ppp7\""
param *.eNodeB45.x2App[9].client.connectAddress "\"eNodeB43%x2ppp6\""
param *.eNodeB46.numX2Apps 8
param *.eNodeB46.x2App[0].client.connectAddress "\"eNodeB2%x2ppp4\""
param *.eNodeB46.x2App[1].client.connectAddress "\"eNodeB3%x2ppp3\""
param *.eNodeB46.x2App[2].client.connectAddress "\"eNodeB12%x2ppp5\""
param *.eNodeB46.x2App[3].client.connectAddress "\"eNodeB25%x2ppp3\""
param *.eNodeB46.x2App[4].client.connectAddress "\"eNodeB30%x2ppp5\""
param *.eNodeB46.x2App[5].client.connectAddress "\"eNodeB32%x2ppp4\""
param *.eNodeB46.x2App[6].client.connectAddress "\"eNodeB55%x2ppp5\""
param *.eNodeB46.x2App[7].client.connectAddress "\"eNodeB62%x2ppp6\""
param *.eNodeB47.numX2Apps 9
param *.eNodeB47.x2App[0].client.connectAddress "\"eNodeB2%x2ppp5\""
param *.eNodeB47.x2App[1].client.connectAddress "\"eNodeB7%x2ppp5\""
param *.eNodeB47.x2App[2].client.connectAddress "\"eNodeB8%x2ppp5\""
param *.eNodeB47.x2App[3].client.connectAddress "\"eNodeB10%x2ppp6\""
param *.eNodeB47.x2App[4].client.connectAddress "\"eNodeB13%x2ppp6\""
param *.eNodeB47.x2App[5].client.connectAddress "\"eNodeB31%x2ppp6\""
param *.eNodeB47.x2App[6].client.connectAddress "\"eNodeB35%x2ppp6\""
param *.eNodeB47.x2App[7].client.connectAddress "\"eNodeB57%x2ppp7\""
param *.eNodeB47.x2App[8].client.connectAddress "\"eNodeB63%x2ppp7\""
param *.eNodeB48.numX2Apps 4
param *.eNodeB48.x2App[0].client.connectAddress "\"eNodeB18%x2ppp2\""
param *.eNodeB48.x2App[1].client.connectAddress "\"eNodeB19%x2ppp3\""
param *.eNodeB48.x2App[2].client.connectAddress "\"eNodeB35%x2ppp7\""
param *.eNodeB48.x2App[3].client.connectAddress "\"eNodeB40%x2ppp4\""
param *.eNodeB49.numX2Apps 7
param *.eNodeB49.x2App[0].client.connectAddress "\"eNodeB4%x2ppp2\""
param *.eNodeB49.x2App[1].client.connectAddress "\"eNodeB17%x2ppp2\""
param *.eNodeB49.x2App[2].client.connectAddress "\"eNodeB20%x2ppp2\""
param *.eNodeB49.x2App[3].client.connectAddress "\"eNodeB29%x2ppp4\""
param *.eNodeB49.x2App[4].client.connectAddress "\"eNodeB51%x2ppp3\""
param *.eNodeB49.x2App[5].client.connectAddress "\"eNodeB52%x2ppp4\""
param *.eNodeB49.x2App[6].client.connectAddress "\"eNodeB56%x2ppp1\""
param *.eNodeB5.numX2Apps 6
param *.eNodeB5.x2App[0].client.connectAddress "\"eNodeB2%x2ppp0\""
param *.eNodeB5.x2App[1].client.connectAddress "\"eNodeB25%x2ppp1\""
param *.eNodeB5.x2App[2].client.connectAddress "\"eNodeB34%x2ppp0\""
param *.eNodeB5.x2App[3].client.connectAddress "\"eNodeB9%x2ppp0\""
param *.eNodeB5.x2App[4].client.connectAddress "\"eNodeB52%x2ppp0\""
param *.eNodeB5.x2App[5].client.connectAddress "\"eNodeB53%x2ppp0\""
param *.eNodeB50.numX2Apps 10
param *.eNodeB50.x2App[0].client.connectAddress "\"eNodeB1%x2ppp9\""
param *.eNodeB50.x2App[1].client.connectAddress "\"eNodeB6%x2ppp10\""
param *.eNodeB50.x2App[2].client.connectAddress "\"eNodeB14%x2ppp10\""
param *.eNodeB50.x2App[3].client.connectAddress "\"eNodeB22%x2ppp7\""
param *.eNodeB50.x2App[4].client.connectAddress "\"eNodeB37%x2ppp9\""
param *.eNodeB50.x2App[5].client.connectAddress "\"eNodeB41%x2ppp9\""
param *.eNodeB50.x2App[6].client.connectAddress "\"eNodeB42%x2ppp8\""
param *.eNodeB50.x2App[7].client.connectAddress "\"eNodeB43%x2ppp7\""
param *.eNodeB50.x2App[8].client.connectAddress "\"eNodeB45%x2ppp10\""
param *.eNodeB50.x2App[9].client.connectAddress "\"eNodeB66%x2ppp12\""
param *.eNodeB51.numX2Apps 7
param *.eNodeB51.x2App[0].client.connectAddress "\"eNodeB6%x2ppp11\""
param *.eNodeB51.x2App[1].client.connectAddress "\"eNodeB29%x2ppp5\""
param *.eNodeB51.x2App[2].client.connectAddress "\"eNodeB33%x2ppp5\""
param *.eNodeB51.x2App[3].client.connectAddress "\"eNodeB49%x2ppp4\""
param *.eNodeB51.x2App[4].client.connectAddress "\"eNodeB52%x2ppp5\""
param *.eNodeB51.x2App[5].client.connectAddress "\"eNodeB53%x2ppp9\""
param *.eNodeB51.x2App[6].client.connectAddress "\"eNodeB56%x2ppp2\""
param *.eNodeB52.numX2Apps 7
param *.eNodeB52.x2App[0].client.connectAddress "\"eNodeB5%x2ppp4\""
param *.eNodeB52.x2App[1].client.connectAddress "\"eNodeB25%x2ppp4\""
param *.eNodeB52.x2App[2].client.connectAddress "\"eNodeB29%x2ppp6\""
param *.eNodeB52.x2App[3].client.connectAddress "\"eNodeB34%x2ppp6\""
param *.eNodeB52.x2App[4].client.connectAddress "\"eNodeB49%x2ppp5\""
param *.eNodeB52.x2App[5].client.connectAddress "\"eNodeB51%x2ppp4\""
param *.eNodeB52.x2App[6].client.connectAddress "\"eNodeB53%x2ppp10\""
param *.eNodeB53.numX2Apps 11
param *.eNodeB53.x2App[0].client.connectAddress "\"eNodeB5%x2ppp5\""
param *.eNodeB53.x2App[10].client.connectAddress "\"eNodeB52%x2ppp6\""
param *.eNodeB53.x2App[1].client.connectAddress "\"eNodeB6%x2ppp12\""
param *.eNodeB53.x2App[2].client.connectAddress "\"eNodeB9%x2ppp4\""
param *.eNodeB53.x2App[3].client.connectAddress "\"eNodeB25%x2ppp5\""
param *.eNodeB53.x2App[4].client.connectAddress "\"eNodeB27%x2ppp6\""
param *.eNodeB53.x2App[5].client.connectAddress "\"eNodeB29%x2ppp7\""
param *.eNodeB53.x2App[6].client.connectAddress "\"eNodeB33%x2ppp6\""
param *.eNodeB53.x2App[7].client.connectAddress "\"eNodeB34%x2ppp7\""
param *.eNodeB53.x2App[8].client.connectAddress "\"eNodeB45%x2ppp11\""
param *.eNodeB53.x2App[9].client.connectAddress "\"eNodeB51%x2ppp5\""
param *.eNodeB54.numX2Apps 7
param *.eNodeB54.x2App[0].client.connectAddress "\"eNodeB1%x2ppp10\""
param *.eNodeB54.x2App[1].client.connectAddress "\"eNodeB11%x2ppp4\""
param *.eNodeB54.x2App[2].client.connectAddress "\"eNodeB14%x2ppp11\""
param *.eNodeB54.x2App[3].client.connectAddress "\"eNodeB22%x2ppp8\""
param *.eNodeB54.x2App[4].client.connectAddress "\"eNodeB40%x2ppp5\""
param *.eNodeB54.x2App[5].client.connectAddress "\"eNodeB41%x2ppp10\""
param *.eNodeB54.x2App[6].client.connectAddress "\"eNodeB66%x2ppp13\""
param *.eNodeB55.numX2Apps 6
param *.eNodeB55.x2App[0].client.connectAddress "\"eNodeB3%x2ppp4\""
param *.eNodeB55.x2App[1].client.connectAddress "\"eNodeB4%x2ppp3\""
param *.eNodeB55.x2App[2].client.connectAddress "\"eNodeB12%x2ppp6\""
param *.eNodeB55.x2App[3].client.connectAddress "\"eNodeB20%x2ppp3\""
param *.eNodeB55.x2App[4].client.connectAddress "\"eNodeB32%x2ppp5\""
param *.eNodeB55.x2App[5].client.connectAddress "\"eNodeB46%x2ppp6\""
param *.eNodeB56.numX2Apps 3
param *.eNodeB56.x2App[0].client.connectAddress "\"eNodeB17%x2ppp3\""
param *.eNodeB56.x2App[1].client.connectAddress "\"eNodeB49%x2ppp6\""
param *.eNodeB56.x2App[2].client.connectAddress "\"eNodeB51%x2ppp6\""
param *.eNodeB57.numX2Apps 12
param *.eNodeB57.x2App[0].client.connectAddress "\"eNodeB7%x2ppp6\""
param *.eNodeB57.x2App[10].client.connectAddress "\"eNodeB64%x2ppp3\""
param *.eNodeB57.x2App[11].client.connectAddress "\"eNodeB65%x2ppp2\""
param *.eNodeB57.x2App[1].client.connectAddress "\"eNodeB8%x2ppp6\""
param *.eNodeB57.x2App[2].client.connectAddress "\"eNodeB10%x2ppp7\""
param *.eNodeB57.x2App[3].client.connectAddress "\"eNodeB13%x2ppp7\""
param *.eNodeB57.x2App[4].client.connectAddress "\"eNodeB28%x2ppp5\""
param *.eNodeB57.x2App[5].client.connectAddress "\"eNodeB31%x2ppp7\""
param *.eNodeB57.x2App[6].client.connectAddress "\"eNodeB35%x2ppp8\""
param *.eNodeB57.x2App[7].client.connectAddress "\"eNodeB47%x2ppp7\""
param *.eNodeB57.x2App[8].client.connectAddress "\"eNodeB63%x2ppp8\""
param *.eNodeB57.x2App[9].client.connectAddress "\"eNodeB60%x2ppp4\""
param *.eNodeB58.numX2Apps 8
param *.eNodeB58.x2App[0].client.connectAddress "\"eNodeB9%x2ppp5\""
param *.eNodeB58.x2App[1].client.connectAddress "\"eNodeB14%x2ppp12\""
param *.eNodeB58.x2App[2].client.connectAddress "\"eNodeB19%x2ppp4\""
param *.eNodeB58.x2App[3].client.connectAddress "\"eNodeB27%x2ppp7\""
param *.eNodeB58.x2App[4].client.connectAddress "\"eNodeB34%x2ppp8\""
param *.eNodeB58.x2App[5].client.connectAddress "\"eNodeB35%x2ppp9\""
param *.eNodeB58.x2App[6].client.connectAddress "\"eNodeB41%x2ppp11\""
param *.eNodeB58.x2App[7].client.connectAddress "\"eNodeB66%x2ppp14\""
param *.eNodeB59.numX2Apps 9
param *.eNodeB59.x2App[0].client.connectAddress "\"eNodeB15%x2ppp3\""
param *.eNodeB59.x2App[1].client.connectAddress "\"eNodeB16%x2ppp1\""
param *.eNodeB59.x2App[2].client.connectAddress "\"eNodeB24%x2ppp3\""
param *.eNodeB59.x2App[3].client.connectAddress "\"eNodeB26%x2ppp1\""
param *.eNodeB59.x2App[4].client.connectAddress "\"eNodeB28%x2ppp6\""
param *.eNodeB59.x2App[5].client.connectAddress "\"eNodeB39%x2ppp2\""
param *.eNodeB59.x2App[6].client.connectAddress "\"eNodeB60%x2ppp5\""
param *.eNodeB59.x2App[7].client.connectAddress "\"eNodeB65%x2ppp3\""
param *.eNodeB59.x2App[8].client.connectAddress "\"eNodeB61%x2ppp3\""
param *.eNodeB6.numX2Apps 14
param *.eNodeB6.x2App[0].client.connectAddress "\"eNodeB1%x2ppp0\""
param *.eNodeB6.x2App[10].client.connectAddress "\"eNodeB42%x2ppp1\""
param *.eNodeB6.x2App[11].client.connectAddress "\"eNodeB51%x2ppp0\""
param *.eNodeB6.x2App[12].client.connectAddress "\"eNodeB53%x2ppp1\""
param *.eNodeB6.x2App[13].client.connectAddress "\"eNodeB66%x2ppp1\""
param *.eNodeB6.x2App[1].client.connectAddress "\"eNodeB37%x2ppp1\""
param *.eNodeB6.x2App[2].client.connectAddress "\"eNodeB45%x2ppp1\""
param *.eNodeB6.x2App[3].client.connectAddress "\"eNodeB50%x2ppp1\""
param *.eNodeB6.x2App[4].client.connectAddress "\"eNodeB14%x2ppp1\""
param *.eNodeB6.x2App[5].client.connectAddress "\"eNodeB27%x2ppp0\""
param *.eNodeB6.x2App[6].client.connectAddress "\"eNodeB29%x2ppp0\""
param *.eNodeB6.x2App[7].client.connectAddress "\"eNodeB33%x2ppp0\""
param *.eNodeB6.x2App[8].client.connectAddress "\"eNodeB34%x2ppp1\""
param *.eNodeB6.x2App[9].client.connectAddress "\"eNodeB41%x2ppp1\""
param *.eNodeB60.numX2Apps 9
param *.eNodeB60.x2App[0].client.connectAddress "\"eNodeB10%x2ppp8\""
param *.eNodeB60.x2App[1].client.connectAddress "\"eNodeB15%x2ppp4\""
param *.eNodeB60.x2App[2].client.connectAddress "\"eNodeB24%x2ppp4\""
param *.eNodeB60.x2App[3].client.connectAddress "\"eNodeB28%x2ppp7\""
param *.eNodeB60.x2App[4].client.connectAddress "\"eNodeB57%x2ppp8\""
param *.eNodeB60.x2App[5].client.connectAddress "\"eNodeB59%x2ppp6\""
param *.eNodeB60.x2App[6].client.connectAddress "\"eNodeB65%x2ppp4\""
param *.eNodeB60.x2App[7].client.connectAddress "\"eNodeB63%x2ppp9\""
param *.eNodeB60.x2App[8].client.connectAddress "\"eNodeB64%x2ppp4\""
param *.eNodeB61.numX2Apps 4
param *.eNodeB61.x2App[0].client.connectAddress "\"eNodeB16%x2ppp2\""
param *.eNodeB61.x2App[1].client.connectAddress "\"eNodeB26%x2ppp2\""
param *.eNodeB61.x2App[2].client.connectAddress "\"eNodeB39%x2ppp3\""
param *.eNodeB61.x2App[3].client.connectAddress "\"eNodeB59%x2ppp7\""
param *.eNodeB62.numX2Apps 7
param *.eNodeB62.x2App[0].client.connectAddress "\"eNodeB3%x2ppp5\""
param *.eNodeB62.x2App[1].client.connectAddress "\"eNodeB12%x2ppp7\""
param *.eNodeB62.x2App[2].client.connectAddress "\"eNodeB30%x2ppp6\""
param *.eNodeB62.x2App[3].client.connectAddress "\"eNodeB32%x2ppp6\""
param *.eNodeB62.x2App[4].client.connectAddress "\"eNodeB38%x2ppp6\""
param *.eNodeB62.x2App[5].client.connectAddress "\"eNodeB44%x2ppp5\""
param *.eNodeB62.x2App[6].client.connectAddress "\"eNodeB46%x2ppp7\""
param *.eNodeB63.numX2Apps 10
param *.eNodeB63.x2App[0].client.connectAddress "\"eNodeB7%x2ppp7\""
param *.eNodeB63.x2App[1].client.connectAddress "\"eNodeB8%x2ppp7\""
param *.eNodeB63.x2App[2].client.connectAddress "\"eNodeB10%x2ppp9\""
param *.eNodeB63.x2App[3].client.connectAddress "\"eNodeB13%x2ppp8\""
param *.eNodeB63.x2App[4].client.connectAddress "\"eNodeB28%x2ppp8\""
param *.eNodeB63.x2App[5].client.connectAddress "\"eNodeB31%x2ppp8\""
param *.eNodeB63.x2App[6].client.connectAddress "\"eNodeB35%x2ppp10\""
param *.eNodeB63.x2App[7].client.connectAddress "\"eNodeB47%x2ppp8\""
param *.eNodeB63.x2App[8].client.connectAddress "\"eNodeB57%x2ppp9\""
param *.eNodeB63.x2App[9].client.connectAddress "\"eNodeB60%x2ppp6\""
param *.eNodeB64.numX2Apps 5
param *.eNodeB64.x2App[0].client.connectAddress "\"eNodeB10%x2ppp10\""
param *.eNodeB64.x2App[1].client.connectAddress "\"eNodeB15%x2ppp5\""
param *.eNodeB64.x2App[2].client.connectAddress "\"eNodeB28%x2ppp9\""
param *.eNodeB64.x2App[3].client.connectAddress "\"eNodeB57%x2ppp10\""
param *.eNodeB64.x2App[4].client.connectAddress "\"eNodeB60%x2ppp7\""
param *.eNodeB65.numX2Apps 5
param *.eNodeB65.x2App[0].client.connectAddress "\"eNodeB24%x2ppp5\""
param *.eNodeB65.x2App[1].client.connectAddress "\"eNodeB28%x2ppp10\""
param *.eNodeB65.x2App[2].client.connectAddress "\"eNodeB57%x2ppp11\""
param *.eNodeB65.x2App[3].client.connectAddress "\"eNodeB59%x2ppp8\""
param *.eNodeB65.x2App[4].client.connectAddress "\"eNodeB60%x2ppp8\""
param *.eNodeB66.numX2Apps 15
param *.eNodeB66.x2App[0].client.connectAddress "\"eNodeB1%x2ppp11\""
param *.eNodeB66.x2App[10].client.connectAddress "\"eNodeB43%x2ppp8\""
param *.eNodeB66.x2App[11].client.connectAddress "\"eNodeB45%x2ppp12\""
param *.eNodeB66.x2App[12].client.connectAddress "\"eNodeB50%x2ppp9\""
param *.eNodeB66.x2App[13].client.connectAddress "\"eNodeB54%x2ppp6\""
param *.eNodeB66.x2App[14].client.connectAddress "\"eNodeB58%x2ppp7\""
param *.eNodeB66.x2App[1].client.connectAddress "\"eNodeB6%x2ppp13\""
param *.eNodeB66.x2App[2].client.connectAddress "\"eNodeB9%x2ppp6\""
param *.eNodeB66.x2App[3].client.connectAddress "\"eNodeB11%x2ppp5\""
param *.eNodeB66.x2App[4].client.connectAddress "\"eNodeB14%x2ppp13\""
param *.eNodeB66.x2App[5].client.connectAddress "\"eNodeB22%x2ppp9\""
param *.eNodeB66.x2App[6].client.connectAddress "\"eNodeB27%x2ppp8\""
param *.eNodeB66.x2App[7].client.connectAddress "\"eNodeB37%x2ppp10\""
param *.eNodeB66.x2App[8].client.connectAddress "\"eNodeB40%x2ppp6\""
param *.eNodeB66.x2App[9].client.connectAddress "\"eNodeB41%x2ppp12\""
param *.eNodeB7.numX2Apps 8
param *.eNodeB7.x2App[0].client.connectAddress "\"eNodeB2%x2ppp1\""
param *.eNodeB7.x2App[1].client.connectAddress "\"eNodeB8%x2ppp0\""
param *.eNodeB7.x2App[2].client.connectAddress "\"eNodeB47%x2ppp1\""
param *.eNodeB7.x2App[3].client.connectAddress "\"eNodeB10%x2ppp0\""
param *.eNodeB7.x2App[4].client.connectAddress "\"eNodeB13%x2ppp0\""
param *.eNodeB7.x2App[5].client.connectAddress "\"eNodeB31%x2ppp0\""
param *.eNodeB7.x2App[6].client.connectAddress "\"eNodeB57%x2ppp0\""
param *.eNodeB7.x2App[7].client.connectAddress "\"eNodeB63%x2ppp0\""
param *.eNodeB8.numX2Apps 8
param *.eNodeB8.x2App[0].client.connectAddress "\"eNodeB7%x2ppp1\""
param *.eNodeB8.x2App[1].client.connectAddress "\"eNodeB13%x2ppp1\""
param *.eNodeB8.x2App[2].client.connectAddress "\"eNodeB31%x2ppp1\""
param *.eNodeB8.x2App[3].client.connectAddress "\"eNodeB47%x2ppp2\""
param *.eNodeB8.x2App[4].client.connectAddress "\"eNodeB10%x2ppp1\""
param *.eNodeB8.x2App[5].client.connectAddress "\"eNodeB35%x2ppp0\""
param *.eNodeB8.x2App[6].client.connectAddress "\"eNodeB57%x2ppp1\""
param *.eNodeB8.x2App[7].client.connectAddress "\"eNodeB63%x2ppp1\""
param *.eNodeB9.numX2Apps 7
param *.eNodeB9.x2App[0].client.connectAddress "\"eNodeB5%x2ppp1\""
param *.eNodeB9.x2App[1].client.connectAddress "\"eNodeB27%x2ppp1\""
param *.eNodeB9.x2App[2].client.connectAddress "\"eNodeB34%x2ppp2\""
param *.eNodeB9.x2App[3].client.connectAddress "\"eNodeB58%x2ppp0\""
param *.eNodeB9.x2App[4].client.connectAddress "\"eNodeB35%x2ppp1\""
param *.eNodeB9.x2App[5].client.connectAddress "\"eNodeB53%x2ppp2\""
param *.eNodeB9.x2App[6].client.connectAddress "\"eNodeB66%x2ppp2\""
param *.obstacles.debug false
param *.obstacles.obstacles "xmldoc(\"config.xml\", \"//AnalogueModel[@type='SimpleObstacleShadowing']/obstacles\")"
param *.playgroundSizeX 3000m
param *.playgroundSizeY 3000m
param *.playgroundSizeZ 50m
param *.server.numUdpApps 250
param *.server.udpApp[*].destAddress "\"car[\" + string(ancestorIndex(0)) + \"]\""
param *.server.udpApp[*].localPort "3000 + ancestorIndex(0)"
param *.server.udpApp[*].startingTime 0.05s
param *.server.udpApp[*].typename "\"VoIPSender\""
param *.veinsManager.launchConfig "xmldoc(\"erlangen.launchd.xml\")"
param *.veinsManager.moduleDisplayString "\"\""
param *.veinsManager.moduleName "\"car\""
param *.veinsManager.moduleType "\"lte.corenetwork.nodes.cars.Car\""
param *.veinsManager.updateInterval 0.1s

vector 8  ErlangenLTE.server.ppp[0].queue  queueLength:vector  ETV
attr interpolationmode  sample-hold
attr title  "queue length, vector"
vector 9  ErlangenLTE.server.ppp[0].ppp  txState:vector  ETV
attr interpolationmode  sample-hold
attr title  "tx state, vector"
vector 279  ErlangenLTE.router.ppp[0].queue  queueLength:vector  ETV
attr interpolationmode  sample-hold
attr title  "queue length, vector"
vector 280  ErlangenLTE.router.ppp[0].ppp  txState:vector  ETV
attr interpolationmode  sample-hold
attr title  "tx state, vector"
vector 290  ErlangenLTE.router.ppp[1].queue  queueLength:vector  ETV
attr interpolationmode  sample-hold
attr title  "queue length, vector"
vector 291  ErlangenLTE.router.ppp[1].ppp  txState:vector  ETV
attr interpolationmode  sample-hold
attr title  "tx state, vector"
vector 306  ErlangenLTE.pgw.ppp[0].queue  queueLength:vector  ETV
attr interpolationmode  sample-hold
attr title  "queue length, vector"
vector 307  ErlangenLTE.pgw.ppp[0].ppp  txState:vector  ETV
attr interpolationmode  sample-hold
attr title  "tx state, vector"
vector 317  ErlangenLTE.pgw.ppp[1].queue  queueLength:vector  ETV
attr interpolationmode  sample-hold
attr title  "queue length, vector"
vector 318  ErlangenLTE.pgw.ppp[1].ppp  txState:vector  ETV
attr interpolationmode  sample-hold
attr title  "tx state, vector"
vector 328  ErlangenLTE.pgw.ppp[2].queue  queueLength:vector  ETV
attr interpolationmode  sample-hold
attr title  "queue length, vector"
vector 329  ErlangenLTE.pgw.ppp[2].ppp  txState:vector  ETV
attr interpolationmode  sample-hold
attr title  "tx state, vector"
vector 339  ErlangenLTE.pgw.ppp[3].queue  queueLength:vector  ETV
attr interpolationmode  sample-hold
attr title  "queue length, vector"
vector 340  ErlangenLTE.pgw.ppp[3].ppp  txState:vector  ETV
attr interpolationmode  sample-hold
attr title  "tx state, vector"
vector 350  ErlangenLTE.pgw.ppp[4].queue  queueLength:vector  ETV
attr interpolationmode  sample-hold
attr title  "queue length, vector"
vector 351  ErlangenLTE.pgw.ppp[4].ppp  txState:vector  ETV
attr interpolationmode  sample-hold
attr title  "tx state, vector"
vector 361  ErlangenLTE.pgw.ppp[5].queue  queueLength:vector  ETV
attr interpolationmode  sample-hold
attr title  "queue length, vector"
vector 362  ErlangenLTE.pgw.ppp[5].ppp  txState:vector  ETV
attr interpolationmode  sample-hold
attr title  "tx state, vector"
vector 372  ErlangenLTE.pgw.ppp[6].queue  queueLength:vector  ETV
attr interpolationmode  sample-hold
attr title  "queue length, vector"
vector 373  ErlangenLTE.pgw.ppp[6].ppp  txState:vector  ETV
attr interpolationmode  sample-hold
attr title  "tx state, vector"
vector 383  ErlangenLTE.pgw.ppp[7].queue  queueLength:vector  ETV
attr interpolationmode  sample-hold
attr title  "queue length, vector"
vector 384  ErlangenLTE.pgw.ppp[7].ppp  txState:vector  ETV
attr interpolationmode  sample-hold
attr title  "tx state, vector"
vector 394  ErlangenLTE.pgw.ppp[8].queue  queueLength:vector  ETV
attr interpolationmode  sample-hold
attr title  "queue length, vector"
vector 395  ErlangenLTE.pgw.ppp[8].ppp  txState:vector  ETV
attr interpolationmode  sample-hold
attr title  "tx state, vector"
vector 405  ErlangenLTE.pgw.ppp[9].queue  queueLength:vector  ETV
attr interpolationmode  sample-hold
attr title  "queue length, vector"
vector 406  ErlangenLTE.pgw.ppp[9].ppp  txState:vector  ETV
attr interpolationmode  sample-hold
attr title  "tx state, vector"
vector 416  ErlangenLTE.pgw.ppp[10].queue  queueLength:vector  ETV
attr interpolationmode  sample-hold
attr title  "queue length, vector"
vector 417  ErlangenLTE.pgw.ppp[10].ppp  txState:vector  ETV
attr interpolationmode  sample-hold
attr title  "tx state, vector"
vector 427  ErlangenLTE.pgw.ppp[11].queue  queueLength:vector  ETV
attr interpolationmode  sample-hold
attr title  "queue length, vector"
vector 428  ErlangenLTE.pgw.ppp[11].ppp  txState:vector  ETV
attr interpolationmode  sample-hold
attr title  "tx state, vector"
vector 438  ErlangenLTE.pgw.ppp[12].queue  queueLength:vector  ETV
attr interpolationmode  sample-hold
attr title  "queue length, vector"
vector 439  ErlangenLTE.pgw.ppp[12].ppp  txState:vector  ETV
attr interpolationmode  sample-hold
attr title  "tx state, vector"
vector 449  ErlangenLTE.pgw.ppp[13].queue  queueLength:vector  ETV
attr interpolationmode  sample-hold
attr title  "queue length, vector"
vector 450  ErlangenLTE.pgw.ppp[13].ppp  txState:vector  ETV
attr interpolationmode  sample-hold
attr title  "tx state, vector"
vector 460  ErlangenLTE.pgw.ppp[14].queue  queueLength:vector  ETV
attr interpolationmode  sample-hold
attr title  "queue length, vector"
vector 461  ErlangenLTE.pgw.ppp[14].ppp  txState:vector  ETV
attr interpolationmode  sample-hold
attr title  "tx state, vector"
vector 471  ErlangenLTE.pgw.ppp[15].queue  queueLength:vector  ETV
attr interpolationmode  sample-hold
attr title  "queue length, vector"
vector 472  ErlangenLTE.pgw.ppp[15].ppp  txState:vector  ETV
attr interpolationmode  sample-hold
attr title  "tx state, vector"
vector 482  ErlangenLTE.pgw.ppp[16].queue  queueLength:vector  ETV
attr interpolationmode  sample-hold
attr title  "queue length, vector"
vector 483  ErlangenLTE.pgw.ppp[16].ppp  txState:vector  ETV
attr interpolationmode  sample-hold
attr title  "tx state, vector"
vector 493  ErlangenLTE.pgw.ppp[17].queue  queueLength:vector  ETV
attr interpolationmode  sample-hold
attr title  "queue length, vector"
vector 494  ErlangenLTE.pgw.ppp[17].ppp  txState:vector  ETV
attr interpolationmode  sample-hold
attr title  "tx state, vector"
vector 504  ErlangenLTE.pgw.ppp[18].queue  queueLength:vector  ETV
attr interpolationmode  sample-hold
attr title  "queue length, vector"
vector 505  ErlangenLTE.pgw.ppp[18].ppp  txState:vector  ETV
attr interpolationmode  sample-hold
attr title  "tx state, vector"
vector 515  ErlangenLTE.pgw.ppp[19].queue  queueLength:vector  ETV
attr interpolationmode  sample-hold
attr title  "queue length, vector"
vector 516  ErlangenLTE.pgw.ppp[19].ppp  txState:vector  ETV
attr interpolationmode  sample-hold
attr title  "tx state, vector"
vector 526  ErlangenLTE.pgw.ppp[20].queue  queueLength:vector  ETV
attr interpolationmode  sample-hold
attr title  "queue length, vector"
vector 527  ErlangenLTE.pgw.ppp[20].ppp  txState:vector  ETV
attr interpolationmode  sample-hold
attr title  "tx state, vector"
vector 537  ErlangenLTE.pgw.ppp[21].queue  queueLength:vector  ETV
attr interpolationmode  sample-hold
attr title  "queue length, vector"
vector 538  ErlangenLTE.pgw.ppp[21].ppp  txState:vector  ETV
attr interpolationmode  sample-hold
attr title  "tx state, vector"
vector 548  ErlangenLTE.pgw.ppp[22].queue  queueLength:vector  ETV
attr interpolationmode  sample-hold
attr title  "queue length, vector"
vector 549  ErlangenLTE.pgw.ppp[22].ppp  txState:vector  ETV
attr interpolationmode  sample-hold
attr title  "tx state, vector"
vector 559  ErlangenLTE.pgw.ppp[23].queue  queueLength:vector  ETV
attr interpolationmode  sample-hold
attr title  "queue length, vector"
vector 560  ErlangenLTE.pgw.ppp[23].ppp  txState:vector  ETV
attr interpolationmode  sample-hold
attr title  "tx state, vector"
vector 570  ErlangenLTE.pgw.ppp[24].queue  queueLength:vector  ETV
attr interpolationmode  sample-hold
attr title  "queue length, vector"
vector 571  ErlangenLTE.pgw.ppp[24].ppp  txState:vector  ETV
attr interpolationmode  sample-hold
attr title  "tx state, vector"
vector 581  ErlangenLTE.pgw.ppp[25].queue  queueLength:vector  ETV
attr interpolationmode  sample-hold
attr title  "queue length, vector"
vector 582  ErlangenLTE.pgw.ppp[25].ppp  txState:vector  ETV
attr interpolationmode  sample-hold
attr title  "tx state, vector"
vector 592  ErlangenLTE.pgw.ppp[26].queue  queueLength:vector  ETV
attr interpolationmode  sample-hold
attr title  "queue length, vector"
vector 593  ErlangenLTE.pgw.ppp[26].ppp  txState:vector  ETV
attr interpolationmode  sample-hold
attr title  "tx state, vector"
vector 603  ErlangenLTE.pgw.ppp[27].queue  queueLength:vector  ETV
attr interpolationmode  sample-hold
attr title  "queue length, vector"
vector 604  ErlangenLTE.pgw.ppp[27].ppp  txState:vector  ETV
attr interpolationmode  sample-hold
attr title  "tx state, vector"
vector 614  ErlangenLTE.pgw.ppp[28].queue  queueLength:vector  ETV
attr interpolationmode  sample-hold
attr title  "queue length, vector"
vector 615  ErlangenLTE.pgw.ppp[28].ppp  txState:vector  ETV
attr interpolationmode  sample-hold
attr title  "tx state, vector"
vector 625  ErlangenLTE.pgw.ppp[29].queue  queueLength:vector  ETV
attr interpolationmode  sample-hold
attr title  "queue length, vector"
vector 626  ErlangenLTE.pgw.ppp[29].ppp  txState:vector  ETV
attr interpolationmode  sample-hold
attr title  "tx state, vector"
vector 636  ErlangenLTE.pgw.ppp[30].queue  queueLength:vector  ETV
attr interpolationmode  sample-hold
attr title  "queue length, vector"
vector 637  ErlangenLTE.pgw.ppp[30].ppp  txState:vector  ETV
attr interpolationmode  sample-hold
attr title  "tx state, vector"
vector 647  ErlangenLTE.pgw.ppp[31].queue  queueLength:vector  ETV
attr interpolationmode  sample-hold
attr title  "queue length, vector"
vector 648  ErlangenLTE.pgw.ppp[31].ppp  txState:vector  ETV
attr interpolationmode  sample-hold
attr title  "tx state, vector"
vector 658  ErlangenLTE.pgw.ppp[32].queue  queueLength:vector  ETV
attr interpolationmode  sample-hold
attr title  "queue length, vector"
vector 659  ErlangenLTE.pgw.ppp[32].ppp  txState:vector  ETV
attr interpolationmode  sample-hold
attr title  "tx state, vector"
vector 669  ErlangenLTE.pgw.ppp[33].queue  queueLength:vector  ETV
attr interpolationmode  sample-hold
attr title  "queue length, vector"
vector 670  ErlangenLTE.pgw.ppp[33].ppp  txState:vector  ETV
attr interpolationmode  sample-hold
attr title  "tx state, vector"
vector 680  ErlangenLTE.pgw.ppp[34].queue  queueLength:vector  ETV
attr interpolationmode  sample-hold
attr title  "queue length, vector"
vector 681  ErlangenLTE.pgw.ppp[34].ppp  txState:vector  ETV
attr interpolationmode  sample-hold
attr title  "tx state, vector"
vector 691  ErlangenLTE.pgw.ppp[35].queue  queueLength:vector  ETV
attr interpolationmode  sample-hold
attr title  "queue length, vector"
vector 692  ErlangenLTE.pgw.ppp[35].ppp  txState:vector  ETV
attr interpolationmode  sample-hold
attr title  "tx state, vector"
vector 702  ErlangenLTE.pgw.ppp[36].queue  queueLength:vector  ETV
attr interpolationmode  sample-hold
attr title  "queue length, vector"
vector 703  ErlangenLTE.pgw.ppp[36].ppp  txState:vector  ETV
attr interpolationmode  sample-hold
attr title  "tx state, vector"
vector 713  ErlangenLTE.pgw.ppp[37].queue  queueLength:vector  ETV
attr interpolationmode  sample-hold
attr title  "queue length, vector"
vector 714  ErlangenLTE.pgw.ppp[37].ppp  txState:vector  ETV
attr interpolationmode  sample-hold
attr title  "tx state, vector"
vector 724  ErlangenLTE.pgw.ppp[38].queue  queueLength:vector  ETV
attr interpolationmode  sample-hold
attr title  "queue length, vector"
vector 725  ErlangenLTE.pgw.ppp[38].ppp  txState:vector  ETV
attr interpolationmode  sample-hold
attr title  "tx state, vector"
vector 735  ErlangenLTE.pgw.ppp[39].queue  queueLength:vector  ETV
attr interpolationmode  sample-hold
attr title  "queue length, vector"
vector 736  ErlangenLTE.pgw.ppp[39].ppp  txState:vector  ETV
attr interpolationmode  sample-hold
attr title  "tx state, vector"
vector 746  ErlangenLTE.pgw.ppp[40].queue  queueLength:vector  ETV
attr interpolationmode  sample-hold
attr title  "queue length, vector"
vector 747  ErlangenLTE.pgw.ppp[40].ppp  txState:vector  ETV
attr interpolationmode  sample-hold
attr title  "tx state, vector"
vector 757  ErlangenLTE.pgw.ppp[41].queue  queueLength:vector  ETV
attr interpolationmode  sample-hold
attr title  "queue length, vector"
vector 758  ErlangenLTE.pgw.ppp[41].ppp  txState:vector  ETV
attr interpolationmode  sample-hold
attr title  "tx state, vector"
vector 768  ErlangenLTE.pgw.ppp[42].queue  queueLength:vector  ETV
attr interpolationmode  sample-hold
attr title  "queue length, vector"
vector 769  ErlangenLTE.pgw.ppp[42].ppp  txState:vector  ETV
attr interpolationmode  sample-hold
attr title  "tx state, vector"
vector 779  ErlangenLTE.pgw.ppp[43].queue  queueLength:vector  ETV
attr interpolationmode  sample-hold
attr title  "queue length, vector"
vector 780  ErlangenLTE.pgw.ppp[43].ppp  txState:vector  ETV
attr interpolationmode  sample-hold
attr title  "tx state, vector"
vector 790  ErlangenLTE.pgw.ppp[44].queue  queueLength:vector  ETV
attr interpolationmode  sample-hold
attr title  "queue length, vector"
vector 791  ErlangenLTE.pgw.ppp[44].ppp  txState:vector  ETV
attr interpolationmode  sample-hold
attr title  "tx state, vector"
vector 801  ErlangenLTE.pgw.ppp[45].queue  queueLength:vector  ETV
attr interpolationmode  sample-hold
attr title  "queue length, vector"
vector 802  ErlangenLTE.pgw.ppp[45].ppp  txState:vector  ETV
attr interpolationmode  sample-hold
attr title  "tx state, vector"
vector 812  ErlangenLTE.pgw.ppp[46].queue  queueLength:vector  ETV
attr interpolationmode  sample-hold
attr title  "queue length, vector"
vector 813  ErlangenLTE.pgw.ppp[46].ppp  txState:vector  ETV
attr interpolationmode  sample-hold
attr title  "tx state, vector"
vector 823  ErlangenLTE.pgw.ppp[47].queue  queueLength:vector  ETV
attr interpolationmode  sample-hold
attr title  "queue length, vector"
vector 824  ErlangenLTE.pgw.ppp[47].ppp  txState:vector  ETV
attr interpolationmode  sample-hold
attr title  "tx state, vector"
vector 834  ErlangenLTE.pgw.ppp[48].queue  queueLength:vector  ETV
attr interpolationmode  sample-hold
attr title  "queue length, vector"
vector 835  ErlangenLTE.pgw.ppp[48].ppp  txState:vector  ETV
attr interpolationmode  sample-hold
attr title  "tx state, vector"
vector 845  ErlangenLTE.pgw.ppp[49].queue  queueLength:vector  ETV
attr interpolationmode  sample-hold
attr title  "queue length, vector"
vector 846  ErlangenLTE.pgw.ppp[49].ppp  txState:vector  ETV
attr interpolationmode  sample-hold
attr title  "tx state, vector"
vector 856  ErlangenLTE.pgw.ppp[50].queue  queueLength:vector  ETV
attr interpolationmode  sample-hold
attr title  "queue length, vector"
vector 857  ErlangenLTE.pgw.ppp[50].ppp  txState:vector  ETV
attr interpolationmode  sample-hold
attr title  "tx state, vector"
vector 867  ErlangenLTE.pgw.ppp[51].queue  queueLength:vector  ETV
attr interpolationmode  sample-hold
attr title  "queue length, vector"
vector 868  ErlangenLTE.pgw.ppp[51].ppp  txState:vector  ETV
attr interpolationmode  sample-hold
attr title  "tx state, vector"
vector 878  ErlangenLTE.pgw.ppp[52].queue  queueLength:vector  ETV
attr interpolationmode  sample-hold
attr title  "queue length, vector"
vector 879  ErlangenLTE.pgw.ppp[52].ppp  txState:vector  ETV
attr interpolationmode  sample-hold
attr title  "tx state, vector"
vector 889  ErlangenLTE.pgw.ppp[53].queue  queueLength:vector  ETV
attr interpolationmode  sample-hold
attr title  "queue length, vector"
vector 890  ErlangenLTE.pgw.ppp[53].ppp  txState:vector  ETV
attr interpolationmode  sample-hold
attr title  "tx state, vector"
vector 900  ErlangenLTE.pgw.ppp[54].queue  queueLength:vector  ETV
attr interpolationmode  sample-hold
attr title  "queue length, vector"
vector 901  ErlangenLTE.pgw.ppp[54].ppp  txState:vector  ETV
attr interpolationmode  sample-hold
attr title  "tx state, vector"
vector 911  ErlangenLTE.pgw.ppp[55].queue  queueLength:vector  ETV
attr interpolationmode  sample-hold
attr title  "queue length, vector"
vector 912  ErlangenLTE.pgw.ppp[55].ppp  txState:vector  ETV
attr interpolationmode  sample-hold
attr title  "tx state, vector"
vector 922  ErlangenLTE.pgw.ppp[56].queue  queueLength:vector  ETV
attr interpolationmode  sample-hold
attr title  "queue length, vector"
vector 923  ErlangenLTE.pgw.ppp[56].ppp  txState:vector  ETV
attr interpolationmode  sample-hold
attr title  "tx state, vector"
vector 933  ErlangenLTE.pgw.ppp[57].queue  queueLength:vector  ETV
attr interpolationmode  sample-hold
attr title  "queue length, vector"
vector 934  ErlangenLTE.pgw.ppp[57].ppp  txState:vector  ETV
attr interpolationmode  sample-hold
attr title  "tx state, vector"
vector 944  ErlangenLTE.pgw.ppp[58].queue  queueLength:vector  ETV
attr interpolationmode  sample-hold
attr title  "queue length, vector"
vector 945  ErlangenLTE.pgw.ppp[58].ppp  txState:vector  ETV
attr interpolationmode  sample-hold
attr title  "tx state, vector"
vector 955  ErlangenLTE.pgw.ppp[59].queue  queueLength:vector  ETV
attr interpolationmode  sample-hold
attr title  "queue length, vector"
vector 956  ErlangenLTE.pgw.ppp[59].ppp  txState:vector  ETV
attr interpolationmode  sample-hold
attr title  "tx state, vector"
vector 966  ErlangenLTE.pgw.ppp[60].queue  queueLength:vector  ETV
attr interpolationmode  sample-hold
attr title  "queue length, vector"
vector 967  ErlangenLTE.pgw.ppp[60].ppp  txState:vector  ETV
attr interpolationmode  sample-hold
attr title  "tx state, vector"
vector 977  ErlangenLTE.pgw.ppp[61].queue  queueLength:vector  ETV
attr interpolationmode  sample-hold
attr title  "queue length, vector"
vector 978  ErlangenLTE.pgw.ppp[61].ppp  txState:vector  ETV
attr interpolationmode  sample-hold
attr title  "tx state, vector"
vector 988  ErlangenLTE.pgw.ppp[62].queue  queueLength:vector  ETV
attr interpolationmode  sample-hold
attr title  "queue length, vector"
vector 989  ErlangenLTE.pgw.ppp[62].ppp  txState:vector  ETV
attr interpolationmode  sample-hold
attr title  "tx state, vector"
vector 999  ErlangenLTE.pgw.ppp[63].queue  queueLength:vector  ETV
attr interpolationmode  sample-hold
attr title  "queue length, vector"
vector 1000  ErlangenLTE.pgw.ppp[63].ppp  txState:vector  ETV
attr interpolationmode  sample-hold
attr title  "tx state, vector"
vector 1010  ErlangenLTE.pgw.ppp[64].queue  queueLength:vector  ETV
attr interpolationmode  sample-hold
attr title  "queue length, vector"
vector 1011  ErlangenLTE.pgw.ppp[64].ppp  txState:vector  ETV
attr interpolationmode  sample-hold
attr title  "tx state, vector"
vector 1021  ErlangenLTE.pgw.ppp[65].queue  queueLength:vector  ETV
attr interpolationmode  sample-hold
attr title  "queue length, vector"
vector 1022  ErlangenLTE.pgw.ppp[65].ppp  txState:vector  ETV
attr interpolationmode  sample-hold
attr title  "tx state, vector"
vector 1032  ErlangenLTE.pgw.pppInterface.queue  queueLength:vector  ETV
attr interpolationmode  sample-hold
attr title  "queue length, vector"
vector 1033  ErlangenLTE.pgw.pppInterface.ppp  txState:vector  ETV
attr interpolationmode  sample-hold
attr title  "tx state, vector"
vector 1075  ErlangenLTE.eNodeB1.pppIf.queue  queueLength:vector  ETV
attr interpolationmode  sample-hold
attr title  "queue length, vector"
vector 1076  ErlangenLTE.eNodeB1.pppIf.ppp  txState:vector  ETV
attr interpolationmode  sample-hold
attr title  "tx state, vector"
vector 1086  ErlangenLTE.eNodeB1.x2ppp[0].queue  queueLength:vector  ETV
attr interpolationmode  sample-hold
attr title  "queue length, vector"
vector 1087  ErlangenLTE.eNodeB1.x2ppp[0].ppp  txState:vector  ETV
attr interpolationmode  sample-hold
attr title  "tx state, vector"
vector 1097  ErlangenLTE.eNodeB1.x2ppp[1].queue  queueLength:vector  ETV
attr interpolationmode  sample-hold
attr title  "queue length, vector"
vector 1098  ErlangenLTE.eNodeB1.x2ppp[1].ppp  txState:vector  ETV
attr interpolationmode  sample-hold
attr title  "tx state, vector"
vector 1108  ErlangenLTE.eNodeB1.x2ppp[2].queue  queueLength:vector  ETV
attr interpolationmode  sample-hold
attr title  "queue length, vector"
vector 1109  ErlangenLTE.eNodeB1.x2ppp[2].ppp  txState:vector  ETV
attr interpolationmode  sample-hold
attr title  "tx state, vector"
vector 1119  ErlangenLTE.eNodeB1.x2ppp[3].queue  queueLength:vector  ETV
attr interpolationmode  sample-hold
attr title  "queue length, vector"
vector 1120  ErlangenLTE.eNodeB1.x2ppp[3].ppp  txState:vector  ETV
attr interpolationmode  sample-hold
attr title  "tx state, vector"
vector 1130  ErlangenLTE.eNodeB1.x2ppp[4].queue  queueLength:vector  ETV
attr interpolationmode  sample-hold
attr title  "queue length, vector"
vector 1131  ErlangenLTE.eNodeB1.x2ppp[4].ppp  txState:vector  ETV
attr interpolationmode  sample-hold
attr title  "tx state, vector"
vector 1141  ErlangenLTE.eNodeB1.x2ppp[5].queue  queueLength:vector  ETV
attr interpolationmode  sample-hold
attr title  "queue length, vector"
vector 1142  ErlangenLTE.eNodeB1.x2ppp[5].ppp  txState:vector  ETV
attr interpolationmode  sample-hold
attr title  "tx state, vector"
vector 1152  ErlangenLTE.eNodeB1.x2ppp[6].queue  queueLength:vector  ETV
attr interpolationmode  sample-hold
attr title  "queue length, vector"
vector 1153  ErlangenLTE.eNodeB1.x2ppp[6].ppp  txState:vector  ETV
attr interpolationmode  sample-hold
attr title  "tx state, vector"
vector 1163  ErlangenLTE.eNodeB1.x2ppp[7].queue  queueLength:vector  ETV
attr interpolationmode  sample-hold
attr title  "queue length, vector"
vector 1164  ErlangenLTE.eNodeB1.x2ppp[7].ppp  txState:vector  ETV
attr interpolationmode  sample-hold
attr title  "tx state, vector"
vector 1174  ErlangenLTE.eNodeB1.x2ppp[8].queue  queueLength:vector  ETV
attr interpolationmode  sample-hold
attr title  "queue length, vector"
vector 1175  ErlangenLTE.eNodeB1.x2ppp[8].ppp  txState:vector  ETV
attr interpolationmode  sample-hold
attr title  "tx state, vector"
vector 1185  ErlangenLTE.eNodeB1.x2ppp[9].queue  queueLength:vector  ETV
attr interpolationmode  sample-hold
attr title  "queue length, vector"
vector 1186  ErlangenLTE.eNodeB1.x2ppp[9].ppp  txState:vector  ETV
attr interpolationmode  sample-hold
attr title  "tx state, vector"
vector 1196  ErlangenLTE.eNodeB1.x2ppp[10].queue  queueLength:vector  ETV
attr interpolationmode  sample-hold
attr title  "queue length, vector"
vector 1197  ErlangenLTE.eNodeB1.x2ppp[10].ppp  txState:vector  ETV
attr interpolationmode  sample-hold
attr title  "tx state, vector"
vector 1207  ErlangenLTE.eNodeB1.x2ppp[11].queue  queueLength:vector  ETV
attr interpolationmode  sample-hold
attr title  "queue length, vector"
vector 1208  ErlangenLTE.eNodeB1.x2ppp[11].ppp  txState:vector  ETV
attr interpolationmode  sample-hold
attr title  "tx state, vector"
vector 1288  ErlangenLTE.eNodeB2.pppIf.queue  queueLength:vector  ETV
attr interpolationmode  sample-hold
attr title  "queue length, vector"
vector 1289  ErlangenLTE.eNodeB2.pppIf.ppp  txState:vector  ETV
attr interpolationmode  sample-hold
attr title  "tx state, vector"
vector 1299  ErlangenLTE.eNodeB2.x2ppp[0].queue  queueLength:vector  ETV
attr interpolationmode  sample-hold
attr title  "queue length, vector"
vector 1300  ErlangenLTE.eNodeB2.x2ppp[0].ppp  txState:vector  ETV
attr interpolationmode  sample-hold
attr title  "tx state, vector"
vector 1310  ErlangenLTE.eNodeB2.x2ppp[1].queue  queueLength:vector  ETV
attr interpolationmode  sample-hold
attr title  "queue length, vector"
vector 1311  ErlangenLTE.eNodeB2.x2ppp[1].ppp  txState:vector  ETV
attr interpolationmode  sample-hold
attr title  "tx state, vector"
vector 1321  ErlangenLTE.eNodeB2.x2ppp[2].queue  queueLength:vector  ETV
attr interpolationmode  sample-hold
attr title  "queue length, vector"
vector 1322  ErlangenLTE.eNodeB2.x2ppp[2].ppp  txState:vector  ETV
attr interpolationmode  sample-hold
attr title  "tx state, vector"
vector 1332  ErlangenLTE.eNodeB2.x2ppp[3].queue  queueLength:vector  ETV
attr interpolationmode  sample-hold
attr title  "queue length, vector"
vector 1333  ErlangenLTE.eNodeB2.x2ppp[3].ppp  txState:vector  ETV
attr interpolationmode  sample-hold
attr title  "tx state, vector"
vector 1343  ErlangenLTE.eNodeB2.x2ppp[4].queue  queueLength:vector  ETV
attr interpolationmode  sample-hold
attr title  "queue length, vector"
vector 1344  ErlangenLTE.eNodeB2.x2ppp[4].ppp  txState:vector  ETV
attr interpolationmode  sample-hold
attr title  "tx state, vector"
vector 1354  ErlangenLTE.eNodeB2.x2ppp[5].queue  queueLength:vector  ETV
attr interpolationmode  sample-hold
attr title  "queue length, vector"
vector 1355  ErlangenLTE.eNodeB2.x2ppp[5].ppp  txState:vector  ETV
attr interpolationmode  sample-hold
attr title  "tx state, vector"
vector 1417  ErlangenLTE.eNodeB3.pppIf.queue  queueLength:vector  ETV
attr interpolationmode  sample-hold
attr title  "queue length, vector"
vector 1418  ErlangenLTE.eNodeB3.pppIf.ppp  txState:vector  ETV
attr interpolationmode  sample-hold
attr title  "tx state, vector"
vector 1428  ErlangenLTE.eNodeB3.x2ppp[0].queue  queueLength:vector  ETV
attr interpolationmode  sample-hold
attr title  "queue length, vector"
vector 1429  ErlangenLTE.eNodeB3.x2ppp[0].ppp  txState:vector  ETV
attr interpolationmode  sample-hold
attr title  "tx state, vector"
vector 1439  ErlangenLTE.eNodeB3.x2ppp[1].queue  queueLength:vector  ETV
attr interpolationmode  sample-hold
attr title  "queue length, vector"
vector 1440  ErlangenLTE.eNodeB3.x2ppp[1].ppp  txState:vector  ETV
attr interpolationmode  sample-hold
attr title  "tx state, vector"
vector 1450  ErlangenLTE.eNodeB3.x2ppp[2].queue  queueLength:vector  ETV
attr interpolationmode  sample-hold
attr title  "queue length, vector"
vector 1451  ErlangenLTE.eNodeB3.x2ppp[2].ppp  txState:vector  ETV
attr interpolationmode  sample-hold
attr title  "tx state, vector"
vector 1461  ErlangenLTE.eNodeB3.x2ppp[3].queue  queueLength:vector  ETV
attr interpolationmode  sample-hold
attr title  "queue length, vector"
vector 1462  ErlangenLTE.eNodeB3.x2ppp[3].ppp  txState:vector  ETV
attr interpolationmode  sample-hold
attr title  "tx state, vector"
vector 1472  ErlangenLTE.eNodeB3.x2ppp[4].queue  queueLength:vector  ETV
attr interpolationmode  sample-hold
attr title  "queue length, vector"
vector 1473  ErlangenLTE.eNodeB3.x2ppp[4].ppp  txState:vector  ETV
attr interpolationmode  sample-hold
attr title  "tx state, vector"
vector 1483  ErlangenLTE.eNodeB3.x2ppp[5].queue  queueLength:vector  ETV
attr interpolationmode  sample-hold
attr title  "queue length, vector"
vector 1484  ErlangenLTE.eNodeB3.x2ppp[5].ppp  txState:vector  ETV
attr interpolationmode  sample-hold
attr title  "tx state, vector"
vector 1546  ErlangenLTE.eNodeB4.pppIf.queue  queueLength:vector  ETV
attr interpolationmode  sample-hold
attr title  "queue length, vector"
vector 1547  ErlangenLTE.eNodeB4.pppIf.ppp  txState:vector  ETV
attr interpolationmode  sample-hold
attr title  "tx state, vector"
vector 1557  ErlangenLTE.eNodeB4.x2ppp[0].queue  queueLength:vector  ETV
attr interpolationmode  sample-hold
attr title  "queue length, vector"
vector 1558  ErlangenLTE.eNodeB4.x2ppp[0].ppp  txState:vector  ETV
attr interpolationmode  sample-hold
attr title  "tx state, vector"
vector 1568  ErlangenLTE.eNodeB4.x2ppp[1].queue  queueLength:vector  ETV
attr interpolationmode  sample-hold
attr title  "queue length, vector"
vector 1569  ErlangenLTE.eNodeB4.x2ppp[1].ppp  txState:vector  ETV
attr interpolationmode  sample-hold
attr title  "tx state, vector"
vector 1579  ErlangenLTE.eNodeB4.x2ppp[2].queue  queueLength:vector  ETV
attr interpolationmode  sample-hold
attr title  "queue length, vector"
vector 1580  ErlangenLTE.eNodeB4.x2ppp[2].ppp  txState:vector  ETV
attr interpolationmode  sample-hold
attr title  "tx state, vector"
vector 1590  ErlangenLTE.eNodeB4.x2ppp[3].queue  queueLength:vector  ETV
attr interpolationmode  sample-hold
attr title  "queue length, vector"
vector 1591  ErlangenLTE.eNodeB4.x2ppp[3].ppp  txState:vector  ETV
attr interpolationmode  sample-hold
attr title  "tx state, vector"
vector 1647  ErlangenLTE.eNodeB5.pppIf.queue  queueLength:vector  ETV
attr interpolationmode  sample-hold
attr title  "queue length, vector"
vector 1648  ErlangenLTE.eNodeB5.pppIf.ppp  txState:vector  ETV
attr interpolationmode  sample-hold
attr title  "tx state, vector"
vector 1658  ErlangenLTE.eNodeB5.x2ppp[0].queue  queueLength:vector  ETV
attr interpolationmode  sample-hold
attr title  "queue length, vector"
vector 1659  ErlangenLTE.eNodeB5.x2ppp[0].ppp  txState:vector  ETV
attr interpolationmode  sample-hold
attr title  "tx state, vector"
vector 1669  ErlangenLTE.eNodeB5.x2ppp[1].queue  queueLength:vector  ETV
attr interpolationmode  sample-hold
attr title  "queue length, vector"
vector 1670  ErlangenLTE.eNodeB5.x2ppp[1].ppp  txState:vector  ETV
attr interpolationmode  sample-hold
attr title  "tx state, vector"
vector 1680  ErlangenLTE.eNodeB5.x2ppp[2].queue  queueLength:vector  ETV
attr interpolationmode  sample-hold
attr title  "queue length, vector"
vector 1681  ErlangenLTE.eNodeB5.x2ppp[2].ppp  txState:vector  ETV
attr interpolationmode  sample-hold
attr title  "tx state, vector"
vector 1691  ErlangenLTE.eNodeB5.x2ppp[3].queue  queueLength:vector  ETV
attr interpolationmode  sample-hold
attr title  "queue length, vector"
vector 1692  ErlangenLTE.eNodeB5.x2ppp[3].ppp  txState:vector  ETV
attr interpolationmode  sample-hold
attr title  "tx state, vector"
vector 1702  ErlangenLTE.eNodeB5.x2ppp[4].queue  queueLength:vector  ETV
attr interpolationmode  sample-hold
attr title  "queue length, vector"
vector 1703  ErlangenLTE.eNodeB5.x2ppp[4].ppp  txState:vector  ETV
attr interpolationmode  sample-hold
attr title  "tx state, vector"
vector 1713  ErlangenLTE.eNodeB5.x2ppp[5].queue  queueLength:vector  ETV
attr interpolationmode  sample-hold
attr title  "queue length, vector"
vector 1714  ErlangenLTE.eNodeB5.x2ppp[5].ppp  txState:vector  ETV
attr interpolationmode  sample-hold
attr title  "tx state, vector"
vector 1776  ErlangenLTE.eNodeB6.pppIf.queue  queueLength:vector  ETV
attr interpolationmode  sample-hold
attr title  "queue length, vector"
vector 1777  ErlangenLTE.eNodeB6.pppIf.ppp  txState:vector  ETV
attr interpolationmode  sample-hold
attr title  "tx state, vector"
vector 1787  ErlangenLTE.eNodeB6.x2ppp[0].queue  queueLength:vector  ETV
attr interpolationmode  sample-hold
attr title  "queue length, vector"
vector 1788  ErlangenLTE.eNodeB6.x2ppp[0].ppp  txState:vector  ETV
attr interpolationmode  sample-hold
attr title  "tx state, vector"
vector 1798  ErlangenLTE.eNodeB6.x2ppp[1].queue  queueLength:vector  ETV
attr interpolationmode  sample-hold
attr title  "queue length, vector"
vector 1799  ErlangenLTE.eNodeB6.x2ppp[1].ppp  txState:vector  ETV
attr interpolationmode  sample-hold
attr title  "tx state, vector"
vector 1809  ErlangenLTE.eNodeB6.x2ppp[2].queue  queueLength:vector  ETV
attr interpolationmode  sample-hold
attr title  "queue length, vector"
vector 1810  ErlangenLTE.eNodeB6.x2ppp[2].ppp  txState:vector  ETV
attr interpolationmode  sample-hold
attr title  "tx state, vector"
vector 1820  ErlangenLTE.eNodeB6.x2ppp[3].queue  queueLength:vector  ETV
attr interpolationmode  sample-hold
attr title  "queue length, vector"
vector 1821  ErlangenLTE.eNodeB6.x2ppp[3].ppp  txState:vector  ETV
attr interpolationmode  sample-hold
attr title  "tx state, vector"
vector 1831  ErlangenLTE.eNodeB6.x2ppp[4].queue  queueLength:vector  ETV
attr interpolationmode  sample-hold
attr title  "queue length, vector"
vector 1832  ErlangenLTE.eNodeB6.x2ppp[4].ppp  txState:vector  ETV
attr interpolationmode  sample-hold
attr title  "tx state, vector"
vector 1842  ErlangenLTE.eNodeB6.x2ppp[5].queue  queueLength:vector  ETV
attr interpolationmode  sample-hold
attr title  "queue length, vector"
vector 1843  ErlangenLTE.eNodeB6.x2ppp[5].ppp  txState:vector  ETV
attr interpolationmode  sample-hold
attr title  "tx state, vector"
vector 1853  ErlangenLTE.eNodeB6.x2ppp[6].queue  queueLength:vector  ETV
attr interpolationmode  sample-hold
attr title  "queue length, vector"
vector 1854  ErlangenLTE.eNodeB6.x2ppp[6].ppp  txState:vector  ETV
attr interpolationmode  sample-hold
attr title  "tx state, vector"
vector 1864  ErlangenLTE.eNodeB6.x2ppp[7].queue  queueLength:vector  ETV
attr interpolationmode  sample-hold
attr title  "queue length, vector"
vector 1865  ErlangenLTE.eNodeB6.x2ppp[7].ppp  txState:vector  ETV
attr interpolationmode  sample-hold
attr title  "tx state, vector"
vector 1875  ErlangenLTE.eNodeB6.x2ppp[8].queue  queueLength:vector  ETV
attr interpolationmode  sample-hold
attr title  "queue length, vector"
vector 1876  ErlangenLTE.eNodeB6.x2ppp[8].ppp  txState:vector  ETV
attr interpolationmode  sample-hold
attr title  "tx state, vector"
vector 1886  ErlangenLTE.eNodeB6.x2ppp[9].queue  queueLength:vector  ETV
attr interpolationmode  sample-hold
attr title  "queue length, vector"
vector 1887  ErlangenLTE.eNodeB6.x2ppp[9].ppp  txState:vector  ETV
attr interpolationmode  sample-hold
attr title  "tx state, vector"
vector 1897  ErlangenLTE.eNodeB6.x2ppp[10].queue  queueLength:vector  ETV
attr interpolationmode  sample-hold
attr title  "queue length, vector"
vector 1898  ErlangenLTE.eNodeB6.x2ppp[10].ppp  txState:vector  ETV
attr interpolationmode  sample-hold
attr title  "tx state, vector"
vector 1908  ErlangenLTE.eNodeB6.x2ppp[11].queue  queueLength:vector  ETV
attr interpolationmode  sample-hold
attr title  "queue length, vector"
vector 1909  ErlangenLTE.eNodeB6.x2ppp[11].ppp  txState:vector  ETV
attr interpolationmode  sample-hold
attr title  "tx state, vector"
vector 1919  ErlangenLTE.eNodeB6.x2ppp[12].queue  queueLength:vector  ETV
attr interpolationmode  sample-hold
attr title  "queue length, vector"
vector 1920  ErlangenLTE.eNodeB6.x2ppp[12].ppp  txState:vector  ETV
attr interpolationmode  sample-hold
attr title  "tx state, vector"
vector 1930  ErlangenLTE.eNodeB6.x2ppp[13].queue  queueLength:vector  ETV
attr interpolationmode  sample-hold
attr title  "queue length, vector"
vector 1931  ErlangenLTE.eNodeB6.x2ppp[13].ppp  txState:vector  ETV
attr interpolationmode  sample-hold
attr title  "tx state, vector"
vector 2017  ErlangenLTE.eNodeB7.pppIf.queue  queueLength:vector  ETV
attr interpolationmode  sample-hold
attr title  "queue length, vector"
vector 2018  ErlangenLTE.eNodeB7.pppIf.ppp  txState:vector  ETV
attr interpolationmode  sample-hold
attr title  "tx state, vector"
vector 2028  ErlangenLTE.eNodeB7.x2ppp[0].queue  queueLength:vector  ETV
attr interpolationmode  sample-hold
attr title  "queue length, vector"
vector 2029  ErlangenLTE.eNodeB7.x2ppp[0].ppp  txState:vector  ETV
attr interpolationmode  sample-hold
attr title  "tx state, vector"
vector 2039  ErlangenLTE.eNodeB7.x2ppp[1].queue  queueLength:vector  ETV
attr interpolationmode  sample-hold
attr title  "queue length, vector"
vector 2040  ErlangenLTE.eNodeB7.x2ppp[1].ppp  txState:vector  ETV
attr interpolationmode  sample-hold
attr title  "tx state, vector"
vector 2050  ErlangenLTE.eNodeB7.x2ppp[2].queue  queueLength:vector  ETV
attr interpolationmode  sample-hold
attr title  "queue length, vector"
vector 2051  ErlangenLTE.eNodeB7.x2ppp[2].ppp  txState:vector  ETV
attr interpolationmode  sample-hold
attr title  "tx state, vector"
vector 2061  ErlangenLTE.eNodeB7.x2ppp[3].queue  queueLength:vector  ETV
attr interpolationmode  sample-hold
attr title  "queue length, vector"
vector 2062  ErlangenLTE.eNodeB7.x2ppp[3].ppp  txState:vector  ETV
attr interpolationmode  sample-hold
attr title  "tx state, vector"
vector 2072  ErlangenLTE.eNodeB7.x2ppp[4].queue  queueLength:vector  ETV
attr interpolationmode  sample-hold
attr title  "queue length, vector"
vector 2073  ErlangenLTE.eNodeB7.x2ppp[4].ppp  txState:vector  ETV
attr interpolationmode  sample-hold
attr title  "tx state, vector"
vector 2083  ErlangenLTE.eNodeB7.x2ppp[5].queue  queueLength:vector  ETV
attr interpolationmode  sample-hold
attr title  "queue length, vector"
vector 2084  ErlangenLTE.eNodeB7.x2ppp[5].ppp  txState:vector  ETV
attr interpolationmode  sample-hold
attr title  "tx state, vector"
vector 2094  ErlangenLTE.eNodeB7.x2ppp[6].queue  queueLength:vector  ETV
attr interpolationmode  sample-hold
attr title  "queue length, vector"
vector 2095  ErlangenLTE.eNodeB7.x2ppp[6].ppp  txState:vector  ETV
attr interpolationmode  sample-hold
attr title  "tx state, vector"
vector 2105  ErlangenLTE.eNodeB7.x2ppp[7].queue  queueLength:vector  ETV
attr interpolationmode  sample-hold
attr title  "queue length, vector"
vector 2106  ErlangenLTE.eNodeB7.x2ppp[7].ppp  txState:vector  ETV
attr interpolationmode  sample-hold
attr title  "tx state, vector"
vector 2174  ErlangenLTE.eNodeB8.pppIf.queue  queueLength:vector  ETV
attr interpolationmode  sample-hold
attr title  "queue length, vector"
vector 2175  ErlangenLTE.eNodeB8.pppIf.ppp  txState:vector  ETV
attr interpolationmode  sample-hold
[...]
attr interpolationmode  sample-hold
attr title  "tx state, vector"
vector 10686  ErlangenLTE.eNodeB65.x2ppp[0].queue  queueLength:vector  ETV
attr interpolationmode  sample-hold
attr title  "queue length, vector"
vector 10687  ErlangenLTE.eNodeB65.x2ppp[0].ppp  txState:vector  ETV
attr interpolationmode  sample-hold
attr title  "tx state, vector"
vector 10697  ErlangenLTE.eNodeB65.x2ppp[1].queue  queueLength:vector  ETV
attr interpolationmode  sample-hold
attr title  "queue length, vector"
vector 10698  ErlangenLTE.eNodeB65.x2ppp[1].ppp  txState:vector  ETV
attr interpolationmode  sample-hold
attr title  "tx state, vector"
vector 10708  ErlangenLTE.eNodeB65.x2ppp[2].queue  queueLength:vector  ETV
attr interpolationmode  sample-hold
attr title  "queue length, vector"
vector 10709  ErlangenLTE.eNodeB65.x2ppp[2].ppp  txState:vector  ETV
attr interpolationmode  sample-hold
attr title  "tx state, vector"
vector 10719  ErlangenLTE.eNodeB65.x2ppp[3].queue  queueLength:vector  ETV
attr interpolationmode  sample-hold
attr title  "queue length, vector"
vector 10720  ErlangenLTE.eNodeB65.x2ppp[3].ppp  txState:vector  ETV
attr interpolationmode  sample-hold
attr title  "tx state, vector"
vector 10730  ErlangenLTE.eNodeB65.x2ppp[4].queue  queueLength:vector  ETV
attr interpolationmode  sample-hold
attr title  "queue length, vector"
vector 10731  ErlangenLTE.eNodeB65.x2ppp[4].ppp  txState:vector  ETV
attr interpolationmode  sample-hold
attr title  "tx state, vector"
vector 10790  ErlangenLTE.eNodeB66.pppIf.queue  queueLength:vector  ETV
attr interpolationmode  sample-hold
attr title  "queue length, vector"
vector 10791  ErlangenLTE.eNodeB66.pppIf.ppp  txState:vector  ETV
attr interpolationmode  sample-hold
attr title  "tx state, vector"
vector 10801  ErlangenLTE.eNodeB66.x2ppp[0].queue  queueLength:vector  ETV
attr interpolationmode  sample-hold
attr title  "queue length, vector"
vector 10802  ErlangenLTE.eNodeB66.x2ppp[0].ppp  txState:vector  ETV
attr interpolationmode  sample-hold
attr title  "tx state, vector"
vector 10812  ErlangenLTE.eNodeB66.x2ppp[1].queue  queueLength:vector  ETV
attr interpolationmode  sample-hold
attr title  "queue length, vector"
vector 10813  ErlangenLTE.eNodeB66.x2ppp[1].ppp  txState:vector  ETV
attr interpolationmode  sample-hold
attr title  "tx state, vector"
vector 10823  ErlangenLTE.eNodeB66.x2ppp[2].queue  queueLength:vector  ETV
attr interpolationmode  sample-hold
attr title  "queue length, vector"
vector 10824  ErlangenLTE.eNodeB66.x2ppp[2].ppp  txState:vector  ETV
attr interpolationmode  sample-hold
attr title  "tx state, vector"
vector 10834  ErlangenLTE.eNodeB66.x2ppp[3].queue  queueLength:vector  ETV
attr interpolationmode  sample-hold
attr title  "queue length, vector"
vector 10835  ErlangenLTE.eNodeB66.x2ppp[3].ppp  txState:vector  ETV
attr interpolationmode  sample-hold
attr title  "tx state, vector"
vector 10845  ErlangenLTE.eNodeB66.x2ppp[4].queue  queueLength:vector  ETV
attr interpolationmode  sample-hold
attr title  "queue length, vector"
vector 10846  ErlangenLTE.eNodeB66.x2ppp[4].ppp  txState:vector  ETV
attr interpolationmode  sample-hold
attr title  "tx state, vector"
vector 10856  ErlangenLTE.eNodeB66.x2ppp[5].queue  queueLength:vector  ETV
attr interpolationmode  sample-hold
attr title  "queue length, vector"
vector 10857  ErlangenLTE.eNodeB66.x2ppp[5].ppp  txState:vector  ETV
attr interpolationmode  sample-hold
attr title  "tx state, vector"
vector 10867  ErlangenLTE.eNodeB66.x2ppp[6].queue  queueLength:vector  ETV
attr interpolationmode  sample-hold
attr title  "queue length, vector"
vector 10868  ErlangenLTE.eNodeB66.x2ppp[6].ppp  txState:vector  ETV
attr interpolationmode  sample-hold
attr title  "tx state, vector"
vector 10878  ErlangenLTE.eNodeB66.x2ppp[7].queue  queueLength:vector  ETV
attr interpolationmode  sample-hold
attr title  "queue length, vector"
vector 10879  ErlangenLTE.eNodeB66.x2ppp[7].ppp  txState:vector  ETV
attr interpolationmode  sample-hold
attr title  "tx state, vector"
vector 10889  ErlangenLTE.eNodeB66.x2ppp[8].queue  queueLength:vector  ETV
attr interpolationmode  sample-hold
attr title  "queue length, vector"
vector 10890  ErlangenLTE.eNodeB66.x2ppp[8].ppp  txState:vector  ETV
attr interpolationmode  sample-hold
attr title  "tx state, vector"
vector 10900  ErlangenLTE.eNodeB66.x2ppp[9].queue  queueLength:vector  ETV
attr interpolationmode  sample-hold
attr title  "queue length, vector"
vector 10901  ErlangenLTE.eNodeB66.x2ppp[9].ppp  txState:vector  ETV
attr interpolationmode  sample-hold
attr title  "tx state, vector"
vector 10911  ErlangenLTE.eNodeB66.x2ppp[10].queue  queueLength:vector  ETV
attr interpolationmode  sample-hold
attr title  "queue length, vector"
vector 10912  ErlangenLTE.eNodeB66.x2ppp[10].ppp  txState:vector  ETV
attr interpolationmode  sample-hold
attr title  "tx state, vector"
vector 10922  ErlangenLTE.eNodeB66.x2ppp[11].queue  queueLength:vector  ETV
attr interpolationmode  sample-hold
attr title  "queue length, vector"
vector 10923  ErlangenLTE.eNodeB66.x2ppp[11].ppp  txState:vector  ETV
attr interpolationmode  sample-hold
attr title  "tx state, vector"
vector 10933  ErlangenLTE.eNodeB66.x2ppp[12].queue  queueLength:vector  ETV
attr interpolationmode  sample-hold
attr title  "queue length, vector"
vector 10934  ErlangenLTE.eNodeB66.x2ppp[12].ppp  txState:vector  ETV
attr interpolationmode  sample-hold
attr title  "tx state, vector"
vector 10944  ErlangenLTE.eNodeB66.x2ppp[13].queue  queueLength:vector  ETV
attr interpolationmode  sample-hold
attr title  "queue length, vector"
vector 10945  ErlangenLTE.eNodeB66.x2ppp[13].ppp  txState:vector  ETV
attr interpolationmode  sample-hold
attr title  "tx state, vector"
vector 10955  ErlangenLTE.eNodeB66.x2ppp[14].queue  queueLength:vector  ETV
attr interpolationmode  sample-hold
attr title  "queue length, vector"
vector 10956  ErlangenLTE.eNodeB66.x2ppp[14].ppp  txState:vector  ETV
attr interpolationmode  sample-hold
attr title  "tx state, vector"
8	0	0	0
9	0	0	0
279	0	0	0
280	0	0	0
290	0	0	0
291	0	0	0
306	0	0	0
307	0	0	0
317	0	0	0
318	0	0	0
328	0	0	0
329	0	0	0
339	0	0	0
340	0	0	0
350	0	0	0
351	0	0	0
361	0	0	0
362	0	0	0
372	0	0	0
373	0	0	0
383	0	0	0
384	0	0	0
394	0	0	0
395	0	0	0
405	0	0	0
406	0	0	0
416	0	0	0
417	0	0	0
427	0	0	0
428	0	0	0
438	0	0	0
439	0	0	0
449	0	0	0
450	0	0	0
460	0	0	0
461	0	0	0
471	0	0	0
472	0	0	0
482	0	0	0
483	0	0	0
493	0	0	0
494	0	0	0
504	0	0	0
505	0	0	0
515	0	0	0
516	0	0	0
526	0	0	0
527	0	0	0
537	0	0	0
538	0	0	0
548	0	0	0
549	0	0	0
559	0	0	0
560	0	0	0
570	0	0	0
571	0	0	0
581	0	0	0
582	0	0	0
592	0	0	0
593	0	0	0
603	0	0	0
604	0	0	0
614	0	0	0
615	0	0	0
625	0	0	0
626	0	0	0
636	0	0	0
637	0	0	0
647	0	0	0
648	0	0	0
658	0	0	0
659	0	0	0
669	0	0	0
670	0	0	0
680	0	0	0
681	0	0	0
691	0	0	0
692	0	0	0
702	0	0	0
703	0	0	0
713	0	0	0
714	0	0	0
724	0	0	0
725	0	0	0
735	0	0	0
736	0	0	0
746	0	0	0
747	0	0	0
757	0	0	0
758	0	0	0
768	0	0	0
769	0	0	0
779	0	0	0
780	0	0	0
790	0	0	0
791	0	0	0
801	0	0	0
802	0	0	0
812	0	0	0
813	0	0	0
823	0	0	0
824	0	0	0
834	0	0	0
835	0	0	0
845	0	0	0
846	0	0	0
856	0	0	0
857	0	0	0
867	0	0	0
868	0	0	0
878	0	0	0
879	0	0	0
889	0	0	0
890	0	0	0
900	0	0	0
901	0	0	0
911	0	0	0
912	0	0	0
922	0	0	0
923	0	0	0
933	0	0	0
934	0	0	0
944	0	0	0
945	0	0	0
955	0	0	0
956	0	0	0
966	0	0	0
967	0	0	0
977	0	0	0
978	0	0	0
988	0	0	0
989	0	0	0
999	0	0	0
1000	0	0	0
1010	0	0	0
1011	0	0	0
1021	0	0	0
1022	0	0	0
1032	0	0	0
1033	0	0	0
1075	0	0	0
1076	0	0	0
1086	0	0	0
1087	0	0	0
1097	0	0	0
1098	0	0	0
1108	0	0	0
1109	0	0	0
1119	0	0	0
1120	0	0	0
1130	0	0	0
1131	0	0	0
1141	0	0	0
1142	0	0	0
1152	0	0	0
1153	0	0	0
1163	0	0	0
1164	0	0	0
1174	0	0	0
1175	0	0	0
1185	0	0	0
1186	0	0	0
1196	0	0	0
1197	0	0	0
1207	0	0	0
1208	0	0	0
1288	0	0	0
1289	0	0	0
1299	0	0	0
1300	0	0	0
1310	0	0	0
1311	0	0	0
1321	0	0	0
1322	0	0	0
1332	0	0	0
1333	0	0	0
1343	0	0	0
1344	0	0	0
1354	0	0	0
1355	0	0	0
1417	0	0	0
1418	0	0	0
1428	0	0	0
1429	0	0	0
1439	0	0	0
1440	0	0	0
1450	0	0	0
1451	0	0	0
1461	0	0	0
1462	0	0	0
1472	0	0	0
1473	0	0	0
1483	0	0	0
1484	0	0	0
1546	0	0	0
1547	0	0	0
1557	0	0	0
1558	0	0	0
1568	0	0	0
1569	0	0	0
1579	0	0	0
1580	0	0	0
1590	0	0	0
1591	0	0	0
1647	0	0	0
1648	0	0	0
1658	0	0	0
1659	0	0	0
1669	0	0	0
1670	0	0	0
1680	0	0	0
1681	0	0	0
1691	0	0	0
1692	0	0	0
1702	0	0	0
1703	0	0	0
1713	0	0	0
1714	0	0	0
1776	0	0	0
1777	0	0	0
1787	0	0	0
1788	0	0	0
1798	0	0	0
1799	0	0	0
1809	0	0	0
1810	0	0	0
1820	0	0	0
1821	0	0	0
1831	0	0	0
1832	0	0	0
1842	0	0	0
1843	0	0	0
1853	0	0	0
1854	0	0	0
1864	0	0	0
1865	0	0	0
1875	0	0	0
1876	0	0	0
1886	0	0	0
1887	0	0	0
1897	0	0	0
1898	0	0	0
1908	0	0	0
1909	0	0	0
1919	0	0	0
1920	0	0	0
1930	0	0	0
1931	0	0	0
2017	0	0	0
2018	0	0	0
2028	0	0	0
2029	0	0	0
2039	0	0	0
2040	0	0	0
2050	0	0	0
2051	0	0	0
2061	0	0	0
2062	0	0	0
2072	0	0	0
2073	0	0	0
2083	0	0	0
2084	0	0	0
2094	0	0	0
2095	0	0	0
2105	0	0	0
2106	0	0	0
2174	0	0	0
2175	0	0	0
2185	0	0	0
2186	0	0	0
2196	0	0	0
2197	0	0	0
2207	0	0	0
2208	0	0	0
2218	0	0	0
2219	0	0	0
2229	0	0	0
2230	0	0	0
2240	0	0	0
2241	0	0	0
2251	0	0	0
2252	0	0	0
2262	0	0	0
2263	0	0	0
2331	0	0	0
2332	0	0	0
2342	0	0	0
2343	0	0	0
2353	0	0	0
2354	0	0	0
2364	0	0	0
2365	0	0	0
2375	0	0	0
2376	0	0	0
2386	0	0	0
2387	0	0	0
2397	0	0	0
2398	0	0	0
2408	0	0	0
2409	0	0	0
2474	0	0	0
2475	0	0	0
2485	0	0	0
2486	0	0	0
2496	0	0	0
2497	0	0	0
2507	0	0	0
2508	0	0	0
2518	0	0	0
2519	0	0	0
2529	0	0	0
2530	0	0	0
2540	0	0	0
2541	0	0	0
2551	0	0	0
2552	0	0	0
2562	0	0	0
2563	0	0	0
2573	0	0	0
2574	0	0	0
2584	0	0	0
2585	0	0	0
2595	0	0	0
2596	0	0	0
2673	0	0	0
2674	0	0	0
2684	0	0	0
2685	0	0	0
2695	0	0	0
2696	0	0	0
2706	0	0	0
2707	0	0	0
2717	0	0	0
2718	0	0	0
2728	0	0	0
2729	0	0	0
2739	0	0	0
2740	0	0	0
2802	0	0	0
2803	0	0	0
2813	0	0	0
2814	0	0	0
2824	0	0	0
2825	0	0	0
2835	0	0	0
2836	0	0	0
2846	0	0	0
2847	0	0	0
2857	0	0	0
2858	0	0	0
2868	0	0	0
2869	0	0	0
2879	0	0	0
2880	0	0	0
2890	0	0	0
2891	0	0	0
2959	0	0	0
2960	0	0	0
2970	0	0	0
2971	0	0	0
2981	0	0	0
2982	0	0	0
2992	0	0	0
2993	0	0	0
3003	0	0	0
3004	0	0	0
3014	0	0	0
3015	0	0	0
3025	0	0	0
3026	0	0	0
3036	0	0	0
3037	0	0	0
3047	0	0	0
3048	0	0	0
3058	0	0	0
3059	0	0	0
3130	0	0	0
3131	0	0	0
3141	0	0	0
3142	0	0	0
3152	0	0	0
3153	0	0	0
3163	0	0	0
3164	0	0	0
3174	0	0	0
3175	0	0	0
3185	0	0	0
3186	0	0	0
3196	0	0	0
3197	0	0	0
3207	0	0	0
3208	0	0	0
3218	0	0	0
3219	0	0	0
3229	0	0	0
3230	0	0	0
3240	0	0	0
3241	0	0	0
3251	0	0	0
3252	0	0	0
3262	0	0	0
3263	0	0	0
3273	0	0	0
3274	0	0	0
3284	0	0	0
3285	0	0	0
3371	0	0	0
3372	0	0	0
3382	0	0	0
3383	0	0	0
3393	0	0	0
3394	0	0	0
3404	0	0	0
3405	0	0	0
3415	0	0	0
3416	0	0	0
3426	0	0	0
3427	0	0	0
3437	0	0	0
3438	0	0	0
3500	0	0	0
3501	0	0	0
3511	0	0	0
3512	0	0	0
3522	0	0	0
3523	0	0	0
3533	0	0	0
3534	0	0	0
3587	0	0	0
3588	0	0	0
3598	0	0	0
3599	0	0	0
3609	0	0	0
3610	0	0	0
3620	0	0	0
3621	0	0	0
3631	0	0	0
3632	0	0	0
3688	0	0	0
3689	0	0	0
3699	0	0	0
3700	0	0	0
3710	0	0	0
3711	0	0	0
3721	0	0	0
3722	0	0	0
3775	0	0	0
3776	0	0	0
3786	0	0	0
3787	0	0	0
3797	0	0	0
3798	0	0	0
3808	0	0	0
3809	0	0	0
3819	0	0	0
3820	0	0	0
3830	0	0	0
3831	0	0	0
3890	0	0	0
3891	0	0	0
3901	0	0	0
3902	0	0	0
3912	0	0	0
3913	0	0	0
3923	0	0	0
3924	0	0	0
3934	0	0	0
3935	0	0	0
3991	0	0	0
3992	0	0	0
4002	0	0	0
4003	0	0	0
4013	0	0	0
4014	0	0	0
4024	0	0	0
4025	0	0	0
4078	0	0	0
4079	0	0	0
4089	0	0	0
4090	0	0	0
4100	0	0	0
4101	0	0	0
4111	0	0	0
4112	0	0	0
4122	0	0	0
4123	0	0	0
4133	0	0	0
4134	0	0	0
4144	0	0	0
4145	0	0	0
4155	0	0	0
4156	0	0	0
4166	0	0	0
4167	0	0	0
4177	0	0	0
4178	0	0	0
4188	0	0	0
4189	0	0	0
4263	0	0	0
4264	0	0	0
4274	0	0	0
4275	0	0	0
4285	0	0	0
4286	0	0	0
4296	0	0	0
4297	0	0	0
4307	0	0	0
4308	0	0	0
4364	0	0	0
4365	0	0	0
4375	0	0	0
4376	0	0	0
4386	0	0	0
4387	0	0	0
4397	0	0	0
4398	0	0	0
4408	0	0	0
4409	0	0	0
4419	0	0	0
4420	0	0	0
4430	0	0	0
4431	0	0	0
4493	0	0	0
4494	0	0	0
4504	0	0	0
4505	0	0	0
4515	0	0	0
4516	0	0	0
4526	0	0	0
4527	0	0	0
4537	0	0	0
4538	0	0	0
4548	0	0	0
4549	0	0	0
4559	0	0	0
4560	0	0	0
4622	0	0	0
4623	0	0	0
4633	0	0	0
4634	0	0	0
4644	0	0	0
4645	0	0	0
4655	0	0	0
4656	0	0	0
4709	0	0	0
4710	0	0	0
4720	0	0	0
4721	0	0	0
4731	0	0	0
4732	0	0	0
4742	0	0	0
4743	0	0	0
4753	0	0	0
4754	0	0	0
4764	0	0	0
4765	0	0	0
4775	0	0	0
4776	0	0	0
4786	0	0	0
4787	0	0	0
4797	0	0	0
4798	0	0	0
4808	0	0	0
4809	0	0	0
4880	0	0	0
4881	0	0	0
4891	0	0	0
4892	0	0	0
4902	0	0	0
4903	0	0	0
4913	0	0	0
4914	0	0	0
4924	0	0	0
4925	0	0	0
4935	0	0	0
4936	0	0	0
4946	0	0	0
4947	0	0	0
4957	0	0	0
4958	0	0	0
4968	0	0	0
4969	0	0	0
4979	0	0	0
4980	0	0	0
4990	0	0	0
4991	0	0	0
5001	0	0	0
5002	0	0	0
5079	0	0	0
5080	0	0	0
5090	0	0	0
5091	0	0	0
5101	0	0	0
5102	0	0	0
5112	0	0	0
5113	0	0	0
5123	0	0	0
5124	0	0	0
5134	0	0	0
5135	0	0	0
5145	0	0	0
5146	0	0	0
5156	0	0	0
5157	0	0	0
5167	0	0	0
5168	0	0	0
5236	0	0	0
5237	0	0	0
5247	0	0	0
5248	0	0	0
5258	0	0	0
5259	0	0	0
5269	0	0	0
5270	0	0	0
5280	0	0	0
5281	0	0	0
5291	0	0	0
5292	0	0	0
5302	0	0	0
5303	0	0	0
5313	0	0	0
5314	0	0	0
5379	0	0	0
5380	0	0	0
5390	0	0	0
5391	0	0	0
5401	0	0	0
5402	0	0	0
5412	0	0	0
5413	0	0	0
5423	0	0	0
5424	0	0	0
5434	0	0	0
5435	0	0	0
5445	0	0	0
5446	0	0	0
5456	0	0	0
5457	0	0	0
5467	0	0	0
5468	0	0	0
5478	0	0	0
5479	0	0	0
5550	0	0	0
5551	0	0	0
5561	0	0	0
5562	0	0	0
5572	0	0	0
5573	0	0	0
5583	0	0	0
5584	0	0	0
5594	0	0	0
5595	0	0	0
5605	0	0	0
5606	0	0	0
5616	0	0	0
5617	0	0	0
5627	0	0	0
5628	0	0	0
5693	0	0	0
5694	0	0	0
5704	0	0	0
5705	0	0	0
5715	0	0	0
5716	0	0	0
5726	0	0	0
5727	0	0	0
5737	0	0	0
5738	0	0	0
5748	0	0	0
5749	0	0	0
5759	0	0	0
5760	0	0	0
5770	0	0	0
5771	0	0	0
5836	0	0	0
5837	0	0	0
5847	0	0	0
5848	0	0	0
5858	0	0	0
5859	0	0	0
5869	0	0	0
5870	0	0	0
5880	0	0	0
5881	0	0	0
5891	0	0	0
5892	0	0	0
5902	0	0	0
5903	0	0	0
5913	0	0	0
5914	0	0	0
5924	0	0	0
5925	0	0	0
5935	0	0	0
5936	0	0	0
6007	0	0	0
6008	0	0	0
6018	0	0	0
6019	0	0	0
6029	0	0	0
6030	0	0	0
6040	0	0	0
6041	0	0	0
6051	0	0	0
6052	0	0	0
6062	0	0	0
6063	0	0	0
6073	0	0	0
6074	0	0	0
6084	0	0	0
6085	0	0	0
6095	0	0	0
6096	0	0	0
6106	0	0	0
6107	0	0	0
6117	0	0	0
6118	0	0	0
6128	0	0	0
6129	0	0	0
6206	0	0	0
6207	0	0	0
6217	0	0	0
6218	0	0	0
6228	0	0	0
6229	0	0	0
6239	0	0	0
6240	0	0	0
6250	0	0	0
6251	0	0	0
6307	0	0	0
6308	0	0	0
6318	0	0	0
6319	0	0	0
6329	0	0	0
6330	0	0	0
6340	0	0	0
6341	0	0	0
6351	0	0	0
6352	0	0	0
6362	0	0	0
6363	0	0	0
6373	0	0	0
6374	0	0	0
6384	0	0	0
6385	0	0	0
6395	0	0	0
6396	0	0	0
6406	0	0	0
6407	0	0	0
6417	0	0	0
6418	0	0	0
6428	0	0	0
6429	0	0	0
6506	0	0	0
6507	0	0	0
6517	0	0	0
6518	0	0	0
6528	0	0	0
6529	0	0	0
6539	0	0	0
6540	0	0	0
6550	0	0	0
6551	0	0	0
6561	0	0	0
6562	0	0	0
6572	0	0	0
6573	0	0	0
6583	0	0	0
6584	0	0	0
6649	0	0	0
6650	0	0	0
6660	0	0	0
6661	0	0	0
6671	0	0	0
6672	0	0	0
6682	0	0	0
6683	0	0	0
6693	0	0	0
6694	0	0	0
6750	0	0	0
6751	0	0	0
6761	0	0	0
6762	0	0	0
6772	0	0	0
6773	0	0	0
6783	0	0	0
6784	0	0	0
6794	0	0	0
6795	0	0	0
6805	0	0	0
6806	0	0	0
6816	0	0	0
6817	0	0	0
6827	0	0	0
6828	0	0	0
6893	0	0	0
6894	0	0	0
6904	0	0	0
6905	0	0	0
6915	0	0	0
6916	0	0	0
6926	0	0	0
6927	0	0	0
6937	0	0	0
6938	0	0	0
6948	0	0	0
6949	0	0	0
6959	0	0	0
6960	0	0	0
6970	0	0	0
6971	0	0	0
6981	0	0	0
6982	0	0	0
6992	0	0	0
6993	0	0	0
7003	0	0	0
7004	0	0	0
7014	0	0	0
7015	0	0	0
7025	0	0	0
7026	0	0	0
7036	0	0	0
7037	0	0	0
7120	0	0	0
7121	0	0	0
7131	0	0	0
7132	0	0	0
7142	0	0	0
7143	0	0	0
7153	0	0	0
7154	0	0	0
7164	0	0	0
7165	0	0	0
7175	0	0	0
7176	0	0	0
7186	0	0	0
7187	0	0	0
7197	0	0	0
7198	0	0	0
7208	0	0	0
7209	0	0	0
7219	0	0	0
7220	0	0	0
7291	0	0	0
7292	0	0	0
7302	0	0	0
7303	0	0	0
7313	0	0	0
7314	0	0	0
7324	0	0	0
7325	0	0	0
7335	0	0	0
7336	0	0	0
7346	0	0	0
7347	0	0	0
7357	0	0	0
7358	0	0	0
7368	0	0	0
7369	0	0	0
7379	0	0	0
7380	0	0	0
7390	0	0	0
7391	0	0	0
7462	0	0	0
7463	0	0	0
7473	0	0	0
7474	0	0	0
7484	0	0	0
7485	0	0	0
7495	0	0	0
7496	0	0	0
7506	0	0	0
7507	0	0	0
7517	0	0	0
7518	0	0	0
7528	0	0	0
7529	0	0	0
7591	0	0	0
7592	0	0	0
7602	0	0	0
7603	0	0	0
7613	0	0	0
7614	0	0	0
7624	0	0	0
7625	0	0	0
7635	0	0	0
7636	0	0	0
7646	0	0	0
7647	0	0	0
7657	0	0	0
7658	0	0	0
7668	0	0	0
7669	0	0	0
7679	0	0	0
7680	0	0	0
7690	0	0	0
7691	0	0	0
7701	0	0	0
7702	0	0	0
7712	0	0	0
7713	0	0	0
7723	0	0	0
7724	0	0	0
7734	0	0	0
7735	0	0	0
7818	0	0	0
7819	0	0	0
7829	0	0	0
7830	0	0	0
7840	0	0	0
7841	0	0	0
7851	0	0	0
7852	0	0	0
7862	0	0	0
7863	0	0	0
7873	0	0	0
7874	0	0	0
7884	0	0	0
7885	0	0	0
7895	0	0	0
7896	0	0	0
7906	0	0	0
7907	0	0	0
7975	0	0	0
7976	0	0	0
7986	0	0	0
7987	0	0	0
7997	0	0	0
7998	0	0	0
8008	0	0	0
8009	0	0	0
8019	0	0	0
8020	0	0	0
8030	0	0	0
8031	0	0	0
8041	0	0	0
8042	0	0	0
8052	0	0	0
8053	0	0	0
8063	0	0	0
8064	0	0	0
8074	0	0	0
8075	0	0	0
8146	0	0	0
8147	0	0	0
8157	0	0	0
8158	0	0	0
8168	0	0	0
8169	0	0	0
8179	0	0	0
8180	0	0	0
8190	0	0	0
8191	0	0	0
8247	0	0	0
8248	0	0	0
8258	0	0	0
8259	0	0	0
8269	0	0	0
8270	0	0	0
8280	0	0	0
8281	0	0	0
8291	0	0	0
8292	0	0	0
8302	0	0	0
8303	0	0	0
8313	0	0	0
8314	0	0	0
8324	0	0	0
8325	0	0	0
8390	0	0	0
8391	0	0	0
8401	0	0	0
8402	0	0	0
8412	0	0	0
8413	0	0	0
8423	0	0	0
8424	0	0	0
8434	0	0	0
8435	0	0	0
8445	0	0	0
8446	0	0	0
8456	0	0	0
8457	0	0	0
8467	0	0	0
8468	0	0	0
8478	0	0	0
8479	0	0	0
8489	0	0	0
8490	0	0	0
8500	0	0	0
8501	0	0	0
8575	0	0	0
8576	0	0	0
8586	0	0	0
8587	0	0	0
8597	0	0	0
8598	0	0	0
8608	0	0	0
8609	0	0	0
8619	0	0	0
8620	0	0	0
8630	0	0	0
8631	0	0	0
8641	0	0	0
8642	0	0	0
8652	0	0	0
8653	0	0	0
8718	0	0	0
8719	0	0	0
8729	0	0	0
8730	0	0	0
8740	0	0	0
8741	0	0	0
8751	0	0	0
8752	0	0	0
8762	0	0	0
8763	0	0	0
8773	0	0	0
8774	0	0	0
8784	0	0	0
8785	0	0	0
8795	0	0	0
8796	0	0	0
8861	0	0	0
8862	0	0	0
8872	0	0	0
8873	0	0	0
8883	0	0	0
8884	0	0	0
8894	0	0	0
8895	0	0	0
8905	0	0	0
8906	0	0	0
8916	0	0	0
8917	0	0	0
8927	0	0	0
8928	0	0	0
8938	0	0	0
8939	0	0	0
8949	0	0	0
8950	0	0	0
8960	0	0	0
8961	0	0	0
8971	0	0	0
8972	0	0	0
8982	0	0	0
8983	0	0	0
9060	0	0	0
9061	0	0	0
9071	0	0	0
9072	0	0	0
9082	0	0	0
9083	0	0	0
9093	0	0	0
9094	0	0	0
9104	0	0	0
9105	0	0	0
9115	0	0	0
9116	0	0	0
9126	0	0	0
9127	0	0	0
9137	0	0	0
9138	0	0	0
9203	0	0	0
9204	0	0	0
9214	0	0	0
9215	0	0	0
9225	0	0	0
9226	0	0	0
9236	0	0	0
9237	0	0	0
9247	0	0	0
9248	0	0	0
9258	0	0	0
9259	0	0	0
9269	0	0	0
9270	0	0	0
9332	0	0	0
9333	0	0	0
9343	0	0	0
9344	0	0	0
9354	0	0	0
9355	0	0	0
9365	0	0	0
9366	0	0	0
9419	0	0	0
9420	0	0	0
9430	0	0	0
9431	0	0	0
9441	0	0	0
9442	0	0	0
9452	0	0	0
9453	0	0	0
9463	0	0	0
9464	0	0	0
9474	0	0	0
9475	0	0	0
9485	0	0	0
9486	0	0	0
9496	0	0	0
9497	0	0	0
9507	0	0	0
9508	0	0	0
9518	0	0	0
9519	0	0	0
9529	0	0	0
9530	0	0	0
9540	0	0	0
9541	0	0	0
9551	0	0	0
9552	0	0	0
9632	0	0	0
9633	0	0	0
9643	0	0	0
9644	0	0	0
9654	0	0	0
9655	0	0	0
9665	0	0	0
9666	0	0	0
9676	0	0	0
9677	0	0	0
9687	0	0	0
9688	0	0	0
9698	0	0	0
9699	0	0	0
9709	0	0	0
9710	0	0	0
9720	0	0	0
9721	0	0	0
9789	0	0	0
9790	0	0	0
9800	0	0	0
9801	0	0	0
9811	0	0	0
9812	0	0	0
9822	0	0	0
9823	0	0	0
9833	0	0	0
9834	0	0	0
9844	0	0	0
9845	0	0	0
9855	0	0	0
9856	0	0	0
9866	0	0	0
9867	0	0	0
9877	0	0	0
9878	0	0	0
9888	0	0	0
9889	0	0	0
9960	0	0	0
9961	0	0	0
9971	0	0	0
9972	0	0	0
9982	0	0	0
9983	0	0	0
9993	0	0	0
9994	0	0	0
10004	0	0	0
10005	0	0	0
10015	0	0	0
10016	0	0	0
10026	0	0	0
10027	0	0	0
10037	0	0	0
10038	0	0	0
10048	0	0	0
10049	0	0	0
10059	0	0	0
10060	0	0	0
10131	0	0	0
10132	0	0	0
10142	0	0	0
10143	0	0	0
10153	0	0	0
10154	0	0	0
10164	0	0	0
10165	0	0	0
10175	0	0	0
10176	0	0	0
10232	0	0	0
10233	0	0	0
10243	0	0	0
10244	0	0	0
10254	0	0	0
10255	0	0	0
10265	0	0	0
10266	0	0	0
10276	0	0	0
10277	0	0	0
10287	0	0	0
10288	0	0	0
10298	0	0	0
10299	0	0	0
10309	0	0	0
10310	0	0	0
10375	0	0	0
10376	0	0	0
10386	0	0	0
10387	0	0	0
10397	0	0	0
10398	0	0	0
10408	0	0	0
10409	0	0	0
10419	0	0	0
10420	0	0	0
10430	0	0	0
10431	0	0	0
10441	0	0	0
10442	0	0	0
10452	0	0	0
10453	0	0	0
10463	0	0	0
10464	0	0	0
10474	0	0	0
10475	0	0	0
10485	0	0	0
10486	0	0	0
10560	0	0	0
10561	0	0	0
10571	0	0	0
10572	0	0	0
10582	0	0	0
10583	0	0	0
10593	0	0	0
10594	0	0	0
10604	0	0	0
10605	0	0	0
10615	0	0	0
10616	0	0	0
10675	0	0	0
10676	0	0	0
10686	0	0	0
10687	0	0	0
10697	0	0	0
10698	0	0	0
10708	0	0	0
10709	0	0	0
10719	0	0	0
10720	0	0	0
10730	0	0	0
10731	0	0	0
10790	0	0	0
10791	0	0	0
10801	0	0	0
10802	0	0	0
10812	0	0	0
10813	0	0	0
10823	0	0	0
10824	0	0	0
10834	0	0	0
10835	0	0	0
10845	0	0	0
10846	0	0	0
10856	0	0	0
10857	0	0	0
10867	0	0	0
10868	0	0	0
10878	0	0	0
10879	0	0	0
10889	0	0	0
10890	0	0	0
10900	0	0	0
10901	0	0	0
10911	0	0	0
10912	0	0	0
10922	0	0	0
10923	0	0	0
10933	0	0	0
10934	0	0	0
10944	0	0	0
10945	0	0	0
10955	0	0	0
10956	0	0	0
