version 2
run VoIP-DL-0-20190131-13:15:08-5466
attr configname VoIP-DL
attr datetime 20190131-13:15:08
attr experiment VoIP-DL
attr inifile omnetpp.ini
attr iterationvars ""
attr iterationvarsf ""
attr measurement ""
attr network ErlangenLTE
attr processid 5466
attr repetition 0
attr replication #0
attr resultdir results
attr runnumber 0
attr seedset 0
param **.broadcastMessageInterval 1s
param **.car[*].macCellId 1
param **.car[*].masterId 1
param **.channelControl.alpha 1.0
param **.channelControl.carrierFrequency 2100e+6Hz
param **.channelControl.pMax 10W
param **.coreDebug false
param **.deployer.antennaCws "\"2;\""
param **.deployer.numRbDl 25
param **.deployer.numRbUl 25
param **.deployer.positionUpdateInterval 0.001s
param **.deployer.ruRange 50
param **.deployer.ruTxPower "\"50,50,50;\""
param **.dynamicCellAssociation true
param **.eNodeB*.mobility.constraintAreaMaxX 3000m
param **.eNodeB*.mobility.constraintAreaMaxY 3000m
param **.eNodeB*.mobility.constraintAreaMaxZ 0m
param **.eNodeB*.mobility.constraintAreaMinX 0m
param **.eNodeB*.mobility.constraintAreaMinY 0m
param **.eNodeB*.mobility.constraintAreaMinZ 0m
param **.eNodeB*.mobility.initFromDisplayString true
param **.eNodeB1.macCellId 1
param **.eNodeB1.macNodeId 1
param **.eNodeB10.macCellId 10
param **.eNodeB10.macNodeId 10
param **.eNodeB11.macCellId 11
param **.eNodeB11.macNodeId 11
param **.eNodeB12.macCellId 12
param **.eNodeB12.macNodeId 12
param **.eNodeB13.macCellId 13
param **.eNodeB13.macNodeId 13
param **.eNodeB14.macCellId 14
param **.eNodeB14.macNodeId 14
param **.eNodeB15.macCellId 15
param **.eNodeB15.macNodeId 15
param **.eNodeB16.macCellId 16
param **.eNodeB16.macNodeId 16
param **.eNodeB17.macCellId 17
param **.eNodeB17.macNodeId 17
param **.eNodeB18.macCellId 18
param **.eNodeB18.macNodeId 18
param **.eNodeB19.macCellId 19
param **.eNodeB19.macNodeId 19
param **.eNodeB2.macCellId 2
param **.eNodeB2.macNodeId 2
param **.eNodeB20.macCellId 20
param **.eNodeB20.macNodeId 20
param **.eNodeB21.macCellId 21
param **.eNodeB21.macNodeId 21
param **.eNodeB22.macCellId 22
param **.eNodeB22.macNodeId 22
param **.eNodeB23.macCellId 23
param **.eNodeB23.macNodeId 23
param **.eNodeB24.macCellId 24
param **.eNodeB24.macNodeId 24
param **.eNodeB25.macCellId 25
param **.eNodeB25.macNodeId 25
param **.eNodeB26.macCellId 26
param **.eNodeB26.macNodeId 26
param **.eNodeB27.macCellId 27
param **.eNodeB27.macNodeId 27
param **.eNodeB28.macCellId 28
param **.eNodeB28.macNodeId 28
param **.eNodeB29.macCellId 29
param **.eNodeB29.macNodeId 29
param **.eNodeB3.macCellId 3
param **.eNodeB3.macNodeId 3
param **.eNodeB30.macCellId 30
param **.eNodeB30.macNodeId 30
param **.eNodeB31.macCellId 31
param **.eNodeB31.macNodeId 31
param **.eNodeB32.macCellId 32
param **.eNodeB32.macNodeId 32
param **.eNodeB33.macCellId 33
param **.eNodeB33.macNodeId 33
param **.eNodeB34.macCellId 34
param **.eNodeB34.macNodeId 34
param **.eNodeB35.macCellId 35
param **.eNodeB35.macNodeId 35
param **.eNodeB36.macCellId 36
param **.eNodeB36.macNodeId 36
param **.eNodeB37.macCellId 37
param **.eNodeB37.macNodeId 37
param **.eNodeB38.macCellId 38
param **.eNodeB38.macNodeId 38
param **.eNodeB39.macCellId 39
param **.eNodeB39.macNodeId 39
param **.eNodeB4.macCellId 4
param **.eNodeB4.macNodeId 4
param **.eNodeB40.macCellId 40
param **.eNodeB40.macNodeId 40
param **.eNodeB41.macCellId 41
param **.eNodeB41.macNodeId 41
param **.eNodeB42.macCellId 42
param **.eNodeB42.macNodeId 42
param **.eNodeB43.macCellId 43
param **.eNodeB43.macNodeId 43
param **.eNodeB44.macCellId 44
param **.eNodeB44.macNodeId 44
param **.eNodeB45.macCellId 45
param **.eNodeB45.macNodeId 45
param **.eNodeB46.macCellId 46
param **.eNodeB46.macNodeId 46
param **.eNodeB47.macCellId 47
param **.eNodeB47.macNodeId 47
param **.eNodeB48.macCellId 48
param **.eNodeB48.macNodeId 48
param **.eNodeB49.macCellId 49
param **.eNodeB49.macNodeId 49
param **.eNodeB5.macCellId 5
param **.eNodeB5.macNodeId 5
param **.eNodeB50.macCellId 50
param **.eNodeB50.macNodeId 50
param **.eNodeB51.macCellId 51
param **.eNodeB51.macNodeId 51
param **.eNodeB52.macCellId 52
param **.eNodeB52.macNodeId 52
param **.eNodeB53.macCellId 53
param **.eNodeB53.macNodeId 53
param **.eNodeB54.macCellId 54
param **.eNodeB54.macNodeId 54
param **.eNodeB55.macCellId 55
param **.eNodeB55.macNodeId 55
param **.eNodeB56.macCellId 56
param **.eNodeB56.macNodeId 56
param **.eNodeB57.macCellId 57
param **.eNodeB57.macNodeId 57
param **.eNodeB58.macCellId 58
param **.eNodeB58.macNodeId 58
param **.eNodeB59.macCellId 59
param **.eNodeB59.macNodeId 59
param **.eNodeB6.macCellId 6
param **.eNodeB6.macNodeId 6
param **.eNodeB60.macCellId 60
param **.eNodeB60.macNodeId 60
param **.eNodeB61.macCellId 61
param **.eNodeB61.macNodeId 61
param **.eNodeB62.macCellId 62
param **.eNodeB62.macNodeId 62
param **.eNodeB63.macCellId 63
param **.eNodeB63.macNodeId 63
param **.eNodeB64.macCellId 64
param **.eNodeB64.macNodeId 64
param **.eNodeB65.macCellId 65
param **.eNodeB65.macNodeId 65
param **.eNodeB66.macCellId 66
param **.eNodeB66.macNodeId 66
param **.eNodeB7.macCellId 7
param **.eNodeB7.macNodeId 7
param **.eNodeB8.macCellId 8
param **.eNodeB8.macNodeId 8
param **.eNodeB9.macCellId 9
param **.eNodeB9.macNodeId 9
param **.eNodeBCount 66
param **.enableHandover true
param **.fbDelay 1
param **.feedbackComputation "xmldoc(\"config_channel.xml\")"
param **.feedbackGeneratorType "\"IDEAL\""
param **.feedbackType "\"ALLBANDS\""
param **.lteNic.phy.channelModel "xmldoc(\"config_channel.xml\")"
param **.maxHarqRtx 3
param **.numBands 25
param **.numUe 250
param **.rbAllocationType "\"localized\""
param **.routingRecorder.enabled false
param **.sctp.enableHeartbeats false
param **.sctp.nagleEnabled false
param *.annotations.draw true
param *.car[*].configurator.mcastGroups "\"224.0.0.10\""
param *.car[*].mobilityType "\"VeinsInetMobility\""
param *.car[*].numUdpApps 1
param *.car[*].udpApp[0].typename "\"VoIPReceiver\""
param *.eNodeB*.x2App[*].server.localPort "5000 + ancestorIndex(1)"
param *.eNodeB1.numX2Apps 29
param *.eNodeB1.x2App[0].client.connectAddress "\"eNodeB22%x2ppp0\""
param *.eNodeB1.x2App[10].client.connectAddress "\"eNodeB25%x2ppp0\""
param *.eNodeB1.x2App[11].client.connectAddress "\"eNodeB27%x2ppp0\""
param *.eNodeB1.x2App[12].client.connectAddress "\"eNodeB29%x2ppp0\""
param *.eNodeB1.x2App[13].client.connectAddress "\"eNodeB31%x2ppp0\""
param *.eNodeB1.x2App[14].client.connectAddress "\"eNodeB33%x2ppp0\""
param *.eNodeB1.x2App[15].client.connectAddress "\"eNodeB34%x2ppp0\""
param *.eNodeB1.x2App[16].client.connectAddress "\"eNodeB35%x2ppp0\""
param *.eNodeB1.x2App[17].client.connectAddress "\"eNodeB37%x2ppp0\""
param *.eNodeB1.x2App[18].client.connectAddress "\"eNodeB40%x2ppp0\""
param *.eNodeB1.x2App[19].client.connectAddress "\"eNodeB42%x2ppp0\""
param *.eNodeB1.x2App[1].client.connectAddress "\"eNodeB41%x2ppp0\""
param *.eNodeB1.x2App[20].client.connectAddress "\"eNodeB43%x2ppp0\""
param *.eNodeB1.x2App[21].client.connectAddress "\"eNodeB45%x2ppp0\""
param *.eNodeB1.x2App[22].client.connectAddress "\"eNodeB48%x2ppp0\""
param *.eNodeB1.x2App[23].client.connectAddress "\"eNodeB51%x2ppp0\""
param *.eNodeB1.x2App[24].client.connectAddress "\"eNodeB52%x2ppp0\""
param *.eNodeB1.x2App[25].client.connectAddress "\"eNodeB53%x2ppp0\""
param *.eNodeB1.x2App[26].client.connectAddress "\"eNodeB54%x2ppp0\""
param *.eNodeB1.x2App[27].client.connectAddress "\"eNodeB58%x2ppp0\""
param *.eNodeB1.x2App[28].client.connectAddress "\"eNodeB66%x2ppp0\""
param *.eNodeB1.x2App[2].client.connectAddress "\"eNodeB50%x2ppp0\""
param *.eNodeB1.x2App[3].client.connectAddress "\"eNodeB5%x2ppp0\""
param *.eNodeB1.x2App[4].client.connectAddress "\"eNodeB6%x2ppp0\""
param *.eNodeB1.x2App[5].client.connectAddress "\"eNodeB9%x2ppp0\""
param *.eNodeB1.x2App[6].client.connectAddress "\"eNodeB11%x2ppp0\""
param *.eNodeB1.x2App[7].client.connectAddress "\"eNodeB14%x2ppp0\""
param *.eNodeB1.x2App[8].client.connectAddress "\"eNodeB18%x2ppp0\""
param *.eNodeB1.x2App[9].client.connectAddress "\"eNodeB19%x2ppp0\""
param *.eNodeB10.numX2Apps 38
param *.eNodeB10.x2App[0].client.connectAddress "\"eNodeB2%x2ppp7\""
param *.eNodeB10.x2App[10].client.connectAddress "\"eNodeB15%x2ppp4\""
param *.eNodeB10.x2App[11].client.connectAddress "\"eNodeB18%x2ppp7\""
param *.eNodeB10.x2App[12].client.connectAddress "\"eNodeB19%x2ppp7\""
param *.eNodeB10.x2App[13].client.connectAddress "\"eNodeB23%x2ppp4\""
param *.eNodeB10.x2App[14].client.connectAddress "\"eNodeB24%x2ppp2\""
param *.eNodeB10.x2App[15].client.connectAddress "\"eNodeB25%x2ppp9\""
param *.eNodeB10.x2App[16].client.connectAddress "\"eNodeB27%x2ppp7\""
param *.eNodeB10.x2App[17].client.connectAddress "\"eNodeB28%x2ppp5\""
param *.eNodeB10.x2App[18].client.connectAddress "\"eNodeB30%x2ppp7\""
param *.eNodeB10.x2App[19].client.connectAddress "\"eNodeB31%x2ppp7\""
param *.eNodeB10.x2App[1].client.connectAddress "\"eNodeB3%x2ppp6\""
param *.eNodeB10.x2App[20].client.connectAddress "\"eNodeB32%x2ppp7\""
param *.eNodeB10.x2App[21].client.connectAddress "\"eNodeB34%x2ppp9\""
param *.eNodeB10.x2App[22].client.connectAddress "\"eNodeB35%x2ppp7\""
param *.eNodeB10.x2App[23].client.connectAddress "\"eNodeB38%x2ppp5\""
param *.eNodeB10.x2App[24].client.connectAddress "\"eNodeB39%x2ppp0\""
param *.eNodeB10.x2App[25].client.connectAddress "\"eNodeB40%x2ppp5\""
param *.eNodeB10.x2App[26].client.connectAddress "\"eNodeB44%x2ppp5\""
param *.eNodeB10.x2App[27].client.connectAddress "\"eNodeB46%x2ppp7\""
param *.eNodeB10.x2App[28].client.connectAddress "\"eNodeB47%x2ppp6\""
param *.eNodeB10.x2App[29].client.connectAddress "\"eNodeB48%x2ppp7\""
param *.eNodeB10.x2App[2].client.connectAddress "\"eNodeB5%x2ppp8\""
param *.eNodeB10.x2App[30].client.connectAddress "\"eNodeB52%x2ppp9\""
param *.eNodeB10.x2App[31].client.connectAddress "\"eNodeB53%x2ppp9\""
param *.eNodeB10.x2App[32].client.connectAddress "\"eNodeB58%x2ppp7\""
param *.eNodeB10.x2App[33].client.connectAddress "\"eNodeB59%x2ppp2\""
param *.eNodeB10.x2App[34].client.connectAddress "\"eNodeB60%x2ppp5\""
param *.eNodeB10.x2App[35].client.connectAddress "\"eNodeB64%x2ppp5\""
param *.eNodeB10.x2App[36].client.connectAddress "\"eNodeB65%x2ppp4\""
param *.eNodeB10.x2App[37].client.connectAddress "\"eNodeB66%x2ppp7\""
param *.eNodeB10.x2App[3].client.connectAddress "\"eNodeB7%x2ppp5\""
param *.eNodeB10.x2App[4].client.connectAddress "\"eNodeB8%x2ppp5\""
param *.eNodeB10.x2App[5].client.connectAddress "\"eNodeB9%x2ppp7\""
param *.eNodeB10.x2App[6].client.connectAddress "\"eNodeB13%x2ppp6\""
param *.eNodeB10.x2App[7].client.connectAddress "\"eNodeB57%x2ppp5\""
param *.eNodeB10.x2App[8].client.connectAddress "\"eNodeB63%x2ppp5\""
param *.eNodeB10.x2App[9].client.connectAddress "\"eNodeB14%x2ppp6\""
param *.eNodeB11.numX2Apps 25
param *.eNodeB11.x2App[0].client.connectAddress "\"eNodeB1%x2ppp3\""
param *.eNodeB11.x2App[10].client.connectAddress "\"eNodeB31%x2ppp8\""
param *.eNodeB11.x2App[11].client.connectAddress "\"eNodeB33%x2ppp6\""
param *.eNodeB11.x2App[12].client.connectAddress "\"eNodeB34%x2ppp10\""
param *.eNodeB11.x2App[13].client.connectAddress "\"eNodeB35%x2ppp8\""
param *.eNodeB11.x2App[14].client.connectAddress "\"eNodeB37%x2ppp5\""
param *.eNodeB11.x2App[15].client.connectAddress "\"eNodeB41%x2ppp6\""
param *.eNodeB11.x2App[16].client.connectAddress "\"eNodeB42%x2ppp4\""
param *.eNodeB11.x2App[17].client.connectAddress "\"eNodeB43%x2ppp3\""
param *.eNodeB11.x2App[18].client.connectAddress "\"eNodeB45%x2ppp6\""
param *.eNodeB11.x2App[19].client.connectAddress "\"eNodeB48%x2ppp8\""
param *.eNodeB11.x2App[1].client.connectAddress "\"eNodeB6%x2ppp5\""
param *.eNodeB11.x2App[20].client.connectAddress "\"eNodeB50%x2ppp5\""
param *.eNodeB11.x2App[21].client.connectAddress "\"eNodeB53%x2ppp10\""
param *.eNodeB11.x2App[22].client.connectAddress "\"eNodeB58%x2ppp8\""
param *.eNodeB11.x2App[23].client.connectAddress "\"eNodeB63%x2ppp6\""
param *.eNodeB11.x2App[24].client.connectAddress "\"eNodeB66%x2ppp8\""
param *.eNodeB11.x2App[2].client.connectAddress "\"eNodeB9%x2ppp8\""
param *.eNodeB11.x2App[3].client.connectAddress "\"eNodeB22%x2ppp4\""
param *.eNodeB11.x2App[4].client.connectAddress "\"eNodeB40%x2ppp6\""
param *.eNodeB11.x2App[5].client.connectAddress "\"eNodeB54%x2ppp5\""
param *.eNodeB11.x2App[6].client.connectAddress "\"eNodeB14%x2ppp7\""
param *.eNodeB11.x2App[7].client.connectAddress "\"eNodeB18%x2ppp8\""
param *.eNodeB11.x2App[8].client.connectAddress "\"eNodeB19%x2ppp8\""
param *.eNodeB11.x2App[9].client.connectAddress "\"eNodeB27%x2ppp8\""
param *.eNodeB12.numX2Apps 21
param *.eNodeB12.x2App[0].client.connectAddress "\"eNodeB2%x2ppp8\""
param *.eNodeB12.x2App[10].client.connectAddress "\"eNodeB23%x2ppp5\""
param *.eNodeB12.x2App[11].client.connectAddress "\"eNodeB25%x2ppp10\""
param *.eNodeB12.x2App[12].client.connectAddress "\"eNodeB32%x2ppp8\""
param *.eNodeB12.x2App[13].client.connectAddress "\"eNodeB36%x2ppp3\""
param *.eNodeB12.x2App[14].client.connectAddress "\"eNodeB38%x2ppp6\""
param *.eNodeB12.x2App[15].client.connectAddress "\"eNodeB44%x2ppp6\""
param *.eNodeB12.x2App[16].client.connectAddress "\"eNodeB46%x2ppp8\""
param *.eNodeB12.x2App[17].client.connectAddress "\"eNodeB47%x2ppp7\""
param *.eNodeB12.x2App[18].client.connectAddress "\"eNodeB49%x2ppp6\""
param *.eNodeB12.x2App[19].client.connectAddress "\"eNodeB52%x2ppp10\""
param *.eNodeB12.x2App[1].client.connectAddress "\"eNodeB3%x2ppp7\""
param *.eNodeB12.x2App[20].client.connectAddress "\"eNodeB55%x2ppp6\""
param *.eNodeB12.x2App[2].client.connectAddress "\"eNodeB4%x2ppp4\""
param *.eNodeB12.x2App[3].client.connectAddress "\"eNodeB5%x2ppp9\""
param *.eNodeB12.x2App[4].client.connectAddress "\"eNodeB7%x2ppp6\""
param *.eNodeB12.x2App[5].client.connectAddress "\"eNodeB30%x2ppp8\""
param *.eNodeB12.x2App[6].client.connectAddress "\"eNodeB62%x2ppp6\""
param *.eNodeB12.x2App[7].client.connectAddress "\"eNodeB17%x2ppp6\""
param *.eNodeB12.x2App[8].client.connectAddress "\"eNodeB20%x2ppp6\""
param *.eNodeB12.x2App[9].client.connectAddress "\"eNodeB21%x2ppp0\""
param *.eNodeB13.numX2Apps 39
param *.eNodeB13.x2App[0].client.connectAddress "\"eNodeB2%x2ppp9\""
param *.eNodeB13.x2App[10].client.connectAddress "\"eNodeB15%x2ppp5\""
param *.eNodeB13.x2App[11].client.connectAddress "\"eNodeB18%x2ppp9\""
param *.eNodeB13.x2App[12].client.connectAddress "\"eNodeB19%x2ppp9\""
param *.eNodeB13.x2App[13].client.connectAddress "\"eNodeB24%x2ppp3\""
param *.eNodeB13.x2App[14].client.connectAddress "\"eNodeB25%x2ppp11\""
param *.eNodeB13.x2App[15].client.connectAddress "\"eNodeB27%x2ppp9\""
param *.eNodeB13.x2App[16].client.connectAddress "\"eNodeB28%x2ppp6\""
param *.eNodeB13.x2App[17].client.connectAddress "\"eNodeB30%x2ppp9\""
param *.eNodeB13.x2App[18].client.connectAddress "\"eNodeB32%x2ppp9\""
param *.eNodeB13.x2App[19].client.connectAddress "\"eNodeB34%x2ppp11\""
param *.eNodeB13.x2App[1].client.connectAddress "\"eNodeB3%x2ppp8\""
param *.eNodeB13.x2App[20].client.connectAddress "\"eNodeB35%x2ppp9\""
param *.eNodeB13.x2App[21].client.connectAddress "\"eNodeB38%x2ppp7\""
param *.eNodeB13.x2App[22].client.connectAddress "\"eNodeB40%x2ppp7\""
param *.eNodeB13.x2App[23].client.connectAddress "\"eNodeB41%x2ppp7\""
param *.eNodeB13.x2App[24].client.connectAddress "\"eNodeB44%x2ppp7\""
param *.eNodeB13.x2App[25].client.connectAddress "\"eNodeB45%x2ppp7\""
param *.eNodeB13.x2App[26].client.connectAddress "\"eNodeB46%x2ppp9\""
param *.eNodeB13.x2App[27].client.connectAddress "\"eNodeB47%x2ppp8\""
param *.eNodeB13.x2App[28].client.connectAddress "\"eNodeB48%x2ppp9\""
param *.eNodeB13.x2App[29].client.connectAddress "\"eNodeB52%x2ppp11\""
param *.eNodeB13.x2App[2].client.connectAddress "\"eNodeB5%x2ppp10\""
param *.eNodeB13.x2App[30].client.connectAddress "\"eNodeB53%x2ppp11\""
param *.eNodeB13.x2App[31].client.connectAddress "\"eNodeB54%x2ppp6\""
param *.eNodeB13.x2App[32].client.connectAddress "\"eNodeB57%x2ppp6\""
param *.eNodeB13.x2App[33].client.connectAddress "\"eNodeB58%x2ppp9\""
param *.eNodeB13.x2App[34].client.connectAddress "\"eNodeB59%x2ppp3\""
param *.eNodeB13.x2App[35].client.connectAddress "\"eNodeB60%x2ppp6\""
param *.eNodeB13.x2App[36].client.connectAddress "\"eNodeB64%x2ppp6\""
param *.eNodeB13.x2App[37].client.connectAddress "\"eNodeB65%x2ppp5\""
param *.eNodeB13.x2App[38].client.connectAddress "\"eNodeB66%x2ppp9\""
param *.eNodeB13.x2App[3].client.connectAddress "\"eNodeB7%x2ppp7\""
param *.eNodeB13.x2App[4].client.connectAddress "\"eNodeB8%x2ppp6\""
param *.eNodeB13.x2App[5].client.connectAddress "\"eNodeB9%x2ppp9\""
param *.eNodeB13.x2App[6].client.connectAddress "\"eNodeB10%x2ppp6\""
param *.eNodeB13.x2App[7].client.connectAddress "\"eNodeB31%x2ppp9\""
param *.eNodeB13.x2App[8].client.connectAddress "\"eNodeB63%x2ppp7\""
param *.eNodeB13.x2App[9].client.connectAddress "\"eNodeB14%x2ppp8\""
param *.eNodeB14.numX2Apps 36
param *.eNodeB14.x2App[0].client.connectAddress "\"eNodeB1%x2ppp4\""
param *.eNodeB14.x2App[10].client.connectAddress "\"eNodeB66%x2ppp10\""
param *.eNodeB14.x2App[11].client.connectAddress "\"eNodeB18%x2ppp10\""
param *.eNodeB14.x2App[12].client.connectAddress "\"eNodeB19%x2ppp10\""
param *.eNodeB14.x2App[13].client.connectAddress "\"eNodeB22%x2ppp5\""
param *.eNodeB14.x2App[14].client.connectAddress "\"eNodeB25%x2ppp12\""
param *.eNodeB14.x2App[15].client.connectAddress "\"eNodeB27%x2ppp10\""
param *.eNodeB14.x2App[16].client.connectAddress "\"eNodeB29%x2ppp9\""
param *.eNodeB14.x2App[17].client.connectAddress "\"eNodeB31%x2ppp10\""
param *.eNodeB14.x2App[18].client.connectAddress "\"eNodeB33%x2ppp7\""
param *.eNodeB14.x2App[19].client.connectAddress "\"eNodeB34%x2ppp12\""
param *.eNodeB14.x2App[1].client.connectAddress "\"eNodeB2%x2ppp10\""
param *.eNodeB14.x2App[20].client.connectAddress "\"eNodeB35%x2ppp10\""
param *.eNodeB14.x2App[21].client.connectAddress "\"eNodeB37%x2ppp6\""
param *.eNodeB14.x2App[22].client.connectAddress "\"eNodeB40%x2ppp8\""
param *.eNodeB14.x2App[23].client.connectAddress "\"eNodeB42%x2ppp5\""
param *.eNodeB14.x2App[24].client.connectAddress "\"eNodeB43%x2ppp4\""
param *.eNodeB14.x2App[25].client.connectAddress "\"eNodeB45%x2ppp8\""
param *.eNodeB14.x2App[26].client.connectAddress "\"eNodeB47%x2ppp9\""
param *.eNodeB14.x2App[27].client.connectAddress "\"eNodeB48%x2ppp10\""
param *.eNodeB14.x2App[28].client.connectAddress "\"eNodeB50%x2ppp6\""
param *.eNodeB14.x2App[29].client.connectAddress "\"eNodeB51%x2ppp7\""
param *.eNodeB14.x2App[2].client.connectAddress "\"eNodeB5%x2ppp11\""
param *.eNodeB14.x2App[30].client.connectAddress "\"eNodeB52%x2ppp12\""
param *.eNodeB14.x2App[31].client.connectAddress "\"eNodeB53%x2ppp12\""
param *.eNodeB14.x2App[32].client.connectAddress "\"eNodeB54%x2ppp7\""
param *.eNodeB14.x2App[33].client.connectAddress "\"eNodeB57%x2ppp7\""
param *.eNodeB14.x2App[34].client.connectAddress "\"eNodeB58%x2ppp10\""
param *.eNodeB14.x2App[35].client.connectAddress "\"eNodeB63%x2ppp8\""
param *.eNodeB14.x2App[3].client.connectAddress "\"eNodeB6%x2ppp6\""
param *.eNodeB14.x2App[4].client.connectAddress "\"eNodeB8%x2ppp7\""
param *.eNodeB14.x2App[5].client.connectAddress "\"eNodeB9%x2ppp10\""
param *.eNodeB14.x2App[6].client.connectAddress "\"eNodeB10%x2ppp7\""
param *.eNodeB14.x2App[7].client.connectAddress "\"eNodeB11%x2ppp3\""
param *.eNodeB14.x2App[8].client.connectAddress "\"eNodeB13%x2ppp7\""
param *.eNodeB14.x2App[9].client.connectAddress "\"eNodeB41%x2ppp8\""
param *.eNodeB15.numX2Apps 27
param *.eNodeB15.x2App[0].client.connectAddress "\"eNodeB2%x2ppp11\""
param *.eNodeB15.x2App[10].client.connectAddress "\"eNodeB18%x2ppp11\""
param *.eNodeB15.x2App[11].client.connectAddress "\"eNodeB19%x2ppp11\""
param *.eNodeB15.x2App[12].client.connectAddress "\"eNodeB23%x2ppp6\""
param *.eNodeB15.x2App[13].client.connectAddress "\"eNodeB24%x2ppp4\""
param *.eNodeB15.x2App[14].client.connectAddress "\"eNodeB26%x2ppp0\""
param *.eNodeB15.x2App[15].client.connectAddress "\"eNodeB30%x2ppp10\""
param *.eNodeB15.x2App[16].client.connectAddress "\"eNodeB31%x2ppp11\""
param *.eNodeB15.x2App[17].client.connectAddress "\"eNodeB35%x2ppp11\""
param *.eNodeB15.x2App[18].client.connectAddress "\"eNodeB39%x2ppp1\""
param *.eNodeB15.x2App[19].client.connectAddress "\"eNodeB44%x2ppp8\""
param *.eNodeB15.x2App[1].client.connectAddress "\"eNodeB5%x2ppp12\""
param *.eNodeB15.x2App[20].client.connectAddress "\"eNodeB47%x2ppp10\""
param *.eNodeB15.x2App[21].client.connectAddress "\"eNodeB48%x2ppp11\""
param *.eNodeB15.x2App[22].client.connectAddress "\"eNodeB57%x2ppp8\""
param *.eNodeB15.x2App[23].client.connectAddress "\"eNodeB59%x2ppp4\""
param *.eNodeB15.x2App[24].client.connectAddress "\"eNodeB61%x2ppp0\""
param *.eNodeB15.x2App[25].client.connectAddress "\"eNodeB63%x2ppp9\""
param *.eNodeB15.x2App[26].client.connectAddress "\"eNodeB65%x2ppp6\""
param *.eNodeB15.x2App[2].client.connectAddress "\"eNodeB7%x2ppp8\""
param *.eNodeB15.x2App[3].client.connectAddress "\"eNodeB8%x2ppp8\""
param *.eNodeB15.x2App[4].client.connectAddress "\"eNodeB10%x2ppp8\""
param *.eNodeB15.x2App[5].client.connectAddress "\"eNodeB13%x2ppp8\""
param *.eNodeB15.x2App[6].client.connectAddress "\"eNodeB28%x2ppp7\""
param *.eNodeB15.x2App[7].client.connectAddress "\"eNodeB60%x2ppp7\""
param *.eNodeB15.x2App[8].client.connectAddress "\"eNodeB64%x2ppp7\""
param *.eNodeB15.x2App[9].client.connectAddress "\"eNodeB16%x2ppp0\""
param *.eNodeB16.numX2Apps 10
param *.eNodeB16.x2App[0].client.connectAddress "\"eNodeB15%x2ppp6\""
param *.eNodeB16.x2App[1].client.connectAddress "\"eNodeB59%x2ppp5\""
param *.eNodeB16.x2App[2].client.connectAddress "\"eNodeB61%x2ppp1\""
param *.eNodeB16.x2App[3].client.connectAddress "\"eNodeB24%x2ppp5\""
param *.eNodeB16.x2App[4].client.connectAddress "\"eNodeB26%x2ppp1\""
param *.eNodeB16.x2App[5].client.connectAddress "\"eNodeB28%x2ppp8\""
param *.eNodeB16.x2App[6].client.connectAddress "\"eNodeB39%x2ppp2\""
param *.eNodeB16.x2App[7].client.connectAddress "\"eNodeB60%x2ppp8\""
param *.eNodeB16.x2App[8].client.connectAddress "\"eNodeB64%x2ppp8\""
param *.eNodeB16.x2App[9].client.connectAddress "\"eNodeB65%x2ppp7\""
param *.eNodeB17.numX2Apps 25
param *.eNodeB17.x2App[0].client.connectAddress "\"eNodeB2%x2ppp12\""
param *.eNodeB17.x2App[10].client.connectAddress "\"eNodeB27%x2ppp11\""
param *.eNodeB17.x2App[11].client.connectAddress "\"eNodeB29%x2ppp10\""
param *.eNodeB17.x2App[12].client.connectAddress "\"eNodeB30%x2ppp11\""
param *.eNodeB17.x2App[13].client.connectAddress "\"eNodeB32%x2ppp10\""
param *.eNodeB17.x2App[14].client.connectAddress "\"eNodeB33%x2ppp8\""
param *.eNodeB17.x2App[15].client.connectAddress "\"eNodeB34%x2ppp13\""
param *.eNodeB17.x2App[16].client.connectAddress "\"eNodeB37%x2ppp7\""
param *.eNodeB17.x2App[17].client.connectAddress "\"eNodeB45%x2ppp9\""
param *.eNodeB17.x2App[18].client.connectAddress "\"eNodeB46%x2ppp10\""
param *.eNodeB17.x2App[19].client.connectAddress "\"eNodeB51%x2ppp8\""
param *.eNodeB17.x2App[1].client.connectAddress "\"eNodeB3%x2ppp9\""
param *.eNodeB17.x2App[20].client.connectAddress "\"eNodeB52%x2ppp13\""
param *.eNodeB17.x2App[21].client.connectAddress "\"eNodeB53%x2ppp13\""
param *.eNodeB17.x2App[22].client.connectAddress "\"eNodeB55%x2ppp7\""
param *.eNodeB17.x2App[23].client.connectAddress "\"eNodeB56%x2ppp3\""
param *.eNodeB17.x2App[24].client.connectAddress "\"eNodeB62%x2ppp7\""
param *.eNodeB17.x2App[2].client.connectAddress "\"eNodeB4%x2ppp5\""
param *.eNodeB17.x2App[3].client.connectAddress "\"eNodeB5%x2ppp13\""
param *.eNodeB17.x2App[4].client.connectAddress "\"eNodeB6%x2ppp7\""
param *.eNodeB17.x2App[5].client.connectAddress "\"eNodeB9%x2ppp11\""
param *.eNodeB17.x2App[6].client.connectAddress "\"eNodeB12%x2ppp5\""
param *.eNodeB17.x2App[7].client.connectAddress "\"eNodeB20%x2ppp7\""
param *.eNodeB17.x2App[8].client.connectAddress "\"eNodeB49%x2ppp7\""
param *.eNodeB17.x2App[9].client.connectAddress "\"eNodeB25%x2ppp13\""
param *.eNodeB18.numX2Apps 39
param *.eNodeB18.x2App[0].client.connectAddress "\"eNodeB1%x2ppp5\""
param *.eNodeB18.x2App[10].client.connectAddress "\"eNodeB14%x2ppp9\""
param *.eNodeB18.x2App[11].client.connectAddress "\"eNodeB15%x2ppp7\""
param *.eNodeB18.x2App[12].client.connectAddress "\"eNodeB19%x2ppp12\""
param *.eNodeB18.x2App[13].client.connectAddress "\"eNodeB40%x2ppp9\""
param *.eNodeB18.x2App[14].client.connectAddress "\"eNodeB48%x2ppp12\""
param *.eNodeB18.x2App[15].client.connectAddress "\"eNodeB22%x2ppp6\""
param *.eNodeB18.x2App[16].client.connectAddress "\"eNodeB24%x2ppp6\""
param *.eNodeB18.x2App[17].client.connectAddress "\"eNodeB27%x2ppp12\""
param *.eNodeB18.x2App[18].client.connectAddress "\"eNodeB28%x2ppp9\""
param *.eNodeB18.x2App[19].client.connectAddress "\"eNodeB31%x2ppp12\""
param *.eNodeB18.x2App[1].client.connectAddress "\"eNodeB2%x2ppp13\""
param *.eNodeB18.x2App[20].client.connectAddress "\"eNodeB34%x2ppp14\""
param *.eNodeB18.x2App[21].client.connectAddress "\"eNodeB35%x2ppp12\""
param *.eNodeB18.x2App[22].client.connectAddress "\"eNodeB37%x2ppp8\""
param *.eNodeB18.x2App[23].client.connectAddress "\"eNodeB39%x2ppp3\""
param *.eNodeB18.x2App[24].client.connectAddress "\"eNodeB41%x2ppp9\""
param *.eNodeB18.x2App[25].client.connectAddress "\"eNodeB43%x2ppp5\""
param *.eNodeB18.x2App[26].client.connectAddress "\"eNodeB45%x2ppp10\""
param *.eNodeB18.x2App[27].client.connectAddress "\"eNodeB47%x2ppp11\""
param *.eNodeB18.x2App[28].client.connectAddress "\"eNodeB50%x2ppp7\""
param *.eNodeB18.x2App[29].client.connectAddress "\"eNodeB53%x2ppp14\""
param *.eNodeB18.x2App[2].client.connectAddress "\"eNodeB5%x2ppp14\""
param *.eNodeB18.x2App[30].client.connectAddress "\"eNodeB54%x2ppp8\""
param *.eNodeB18.x2App[31].client.connectAddress "\"eNodeB57%x2ppp9\""
param *.eNodeB18.x2App[32].client.connectAddress "\"eNodeB58%x2ppp11\""
param *.eNodeB18.x2App[33].client.connectAddress "\"eNodeB59%x2ppp6\""
param *.eNodeB18.x2App[34].client.connectAddress "\"eNodeB60%x2ppp9\""
param *.eNodeB18.x2App[35].client.connectAddress "\"eNodeB63%x2ppp10\""
param *.eNodeB18.x2App[36].client.connectAddress "\"eNodeB64%x2ppp9\""
param *.eNodeB18.x2App[37].client.connectAddress "\"eNodeB65%x2ppp8\""
param *.eNodeB18.x2App[38].client.connectAddress "\"eNodeB66%x2ppp11\""
param *.eNodeB18.x2App[3].client.connectAddress "\"eNodeB6%x2ppp8\""
param *.eNodeB18.x2App[4].client.connectAddress "\"eNodeB7%x2ppp9\""
param *.eNodeB18.x2App[5].client.connectAddress "\"eNodeB8%x2ppp9\""
param *.eNodeB18.x2App[6].client.connectAddress "\"eNodeB9%x2ppp12\""
param *.eNodeB18.x2App[7].client.connectAddress "\"eNodeB10%x2ppp9\""
param *.eNodeB18.x2App[8].client.connectAddress "\"eNodeB11%x2ppp4\""
param *.eNodeB18.x2App[9].client.connectAddress "\"eNodeB13%x2ppp9\""
param *.eNodeB19.numX2Apps 42
param *.eNodeB19.x2App[0].client.connectAddress "\"eNodeB1%x2ppp6\""
param *.eNodeB19.x2App[10].client.connectAddress "\"eNodeB14%x2ppp10\""
param *.eNodeB19.x2App[11].client.connectAddress "\"eNodeB15%x2ppp8\""
param *.eNodeB19.x2App[12].client.connectAddress "\"eNodeB18%x2ppp12\""
param *.eNodeB19.x2App[13].client.connectAddress "\"eNodeB35%x2ppp13\""
param *.eNodeB19.x2App[14].client.connectAddress "\"eNodeB48%x2ppp13\""
param *.eNodeB19.x2App[15].client.connectAddress "\"eNodeB22%x2ppp7\""
param *.eNodeB19.x2App[16].client.connectAddress "\"eNodeB24%x2ppp7\""
param *.eNodeB19.x2App[17].client.connectAddress "\"eNodeB25%x2ppp14\""
param *.eNodeB19.x2App[18].client.connectAddress "\"eNodeB27%x2ppp13\""
param *.eNodeB19.x2App[19].client.connectAddress "\"eNodeB28%x2ppp10\""
param *.eNodeB19.x2App[1].client.connectAddress "\"eNodeB2%x2ppp14\""
param *.eNodeB19.x2App[20].client.connectAddress "\"eNodeB29%x2ppp11\""
param *.eNodeB19.x2App[21].client.connectAddress "\"eNodeB31%x2ppp13\""
param *.eNodeB19.x2App[22].client.connectAddress "\"eNodeB34%x2ppp15\""
param *.eNodeB19.x2App[23].client.connectAddress "\"eNodeB37%x2ppp9\""
param *.eNodeB19.x2App[24].client.connectAddress "\"eNodeB40%x2ppp10\""
param *.eNodeB19.x2App[25].client.connectAddress "\"eNodeB41%x2ppp10\""
param *.eNodeB19.x2App[26].client.connectAddress "\"eNodeB42%x2ppp6\""
param *.eNodeB19.x2App[27].client.connectAddress "\"eNodeB43%x2ppp6\""
param *.eNodeB19.x2App[28].client.connectAddress "\"eNodeB45%x2ppp11\""
param *.eNodeB19.x2App[29].client.connectAddress "\"eNodeB47%x2ppp12\""
param *.eNodeB19.x2App[2].client.connectAddress "\"eNodeB5%x2ppp15\""
param *.eNodeB19.x2App[30].client.connectAddress "\"eNodeB50%x2ppp8\""
param *.eNodeB19.x2App[31].client.connectAddress "\"eNodeB52%x2ppp14\""
param *.eNodeB19.x2App[32].client.connectAddress "\"eNodeB53%x2ppp15\""
param *.eNodeB19.x2App[33].client.connectAddress "\"eNodeB54%x2ppp9\""
param *.eNodeB19.x2App[34].client.connectAddress "\"eNodeB57%x2ppp10\""
param *.eNodeB19.x2App[35].client.connectAddress "\"eNodeB58%x2ppp12\""
param *.eNodeB19.x2App[36].client.connectAddress "\"eNodeB59%x2ppp7\""
param *.eNodeB19.x2App[37].client.connectAddress "\"eNodeB60%x2ppp10\""
param *.eNodeB19.x2App[38].client.connectAddress "\"eNodeB63%x2ppp11\""
param *.eNodeB19.x2App[39].client.connectAddress "\"eNodeB64%x2ppp10\""
param *.eNodeB19.x2App[3].client.connectAddress "\"eNodeB6%x2ppp9\""
param *.eNodeB19.x2App[40].client.connectAddress "\"eNodeB65%x2ppp9\""
param *.eNodeB19.x2App[41].client.connectAddress "\"eNodeB66%x2ppp12\""
param *.eNodeB19.x2App[4].client.connectAddress "\"eNodeB7%x2ppp10\""
param *.eNodeB19.x2App[5].client.connectAddress "\"eNodeB8%x2ppp10\""
param *.eNodeB19.x2App[6].client.connectAddress "\"eNodeB9%x2ppp13\""
param *.eNodeB19.x2App[7].client.connectAddress "\"eNodeB10%x2ppp10\""
param *.eNodeB19.x2App[8].client.connectAddress "\"eNodeB11%x2ppp5\""
param *.eNodeB19.x2App[9].client.connectAddress "\"eNodeB13%x2ppp10\""
param *.eNodeB2.numX2Apps 50
param *.eNodeB2.x2App[0].client.connectAddress "\"eNodeB5%x2ppp1\""
param *.eNodeB2.x2App[10].client.connectAddress "\"eNodeB13%x2ppp0\""
param *.eNodeB2.x2App[11].client.connectAddress "\"eNodeB14%x2ppp1\""
param *.eNodeB2.x2App[12].client.connectAddress "\"eNodeB15%x2ppp0\""
param *.eNodeB2.x2App[13].client.connectAddress "\"eNodeB17%x2ppp0\""
param *.eNodeB2.x2App[14].client.connectAddress "\"eNodeB18%x2ppp1\""
param *.eNodeB2.x2App[15].client.connectAddress "\"eNodeB19%x2ppp1\""
param *.eNodeB2.x2App[16].client.connectAddress "\"eNodeB20%x2ppp0\""
param *.eNodeB2.x2App[17].client.connectAddress "\"eNodeB23%x2ppp0\""
param *.eNodeB2.x2App[18].client.connectAddress "\"eNodeB25%x2ppp1\""
param *.eNodeB2.x2App[19].client.connectAddress "\"eNodeB27%x2ppp1\""
param *.eNodeB2.x2App[1].client.connectAddress "\"eNodeB7%x2ppp0\""
param *.eNodeB2.x2App[20].client.connectAddress "\"eNodeB28%x2ppp0\""
param *.eNodeB2.x2App[21].client.connectAddress "\"eNodeB29%x2ppp1\""
param *.eNodeB2.x2App[22].client.connectAddress "\"eNodeB30%x2ppp0\""
param *.eNodeB2.x2App[23].client.connectAddress "\"eNodeB31%x2ppp1\""
param *.eNodeB2.x2App[24].client.connectAddress "\"eNodeB33%x2ppp1\""
param *.eNodeB2.x2App[25].client.connectAddress "\"eNodeB34%x2ppp1\""
param *.eNodeB2.x2App[26].client.connectAddress "\"eNodeB35%x2ppp1\""
param *.eNodeB2.x2App[27].client.connectAddress "\"eNodeB36%x2ppp0\""
param *.eNodeB2.x2App[28].client.connectAddress "\"eNodeB37%x2ppp1\""
param *.eNodeB2.x2App[29].client.connectAddress "\"eNodeB38%x2ppp0\""
param *.eNodeB2.x2App[2].client.connectAddress "\"eNodeB32%x2ppp0\""
param *.eNodeB2.x2App[30].client.connectAddress "\"eNodeB41%x2ppp1\""
param *.eNodeB2.x2App[31].client.connectAddress "\"eNodeB44%x2ppp0\""
param *.eNodeB2.x2App[32].client.connectAddress "\"eNodeB45%x2ppp1\""
param *.eNodeB2.x2App[33].client.connectAddress "\"eNodeB46%x2ppp0\""
param *.eNodeB2.x2App[34].client.connectAddress "\"eNodeB47%x2ppp0\""
param *.eNodeB2.x2App[35].client.connectAddress "\"eNodeB48%x2ppp1\""
param *.eNodeB2.x2App[36].client.connectAddress "\"eNodeB49%x2ppp0\""
param *.eNodeB2.x2App[37].client.connectAddress "\"eNodeB50%x2ppp1\""
param *.eNodeB2.x2App[38].client.connectAddress "\"eNodeB51%x2ppp1\""
param *.eNodeB2.x2App[39].client.connectAddress "\"eNodeB52%x2ppp1\""
param *.eNodeB2.x2App[3].client.connectAddress "\"eNodeB3%x2ppp0\""
param *.eNodeB2.x2App[40].client.connectAddress "\"eNodeB53%x2ppp1\""
param *.eNodeB2.x2App[41].client.connectAddress "\"eNodeB55%x2ppp0\""
param *.eNodeB2.x2App[42].client.connectAddress "\"eNodeB57%x2ppp0\""
param *.eNodeB2.x2App[43].client.connectAddress "\"eNodeB58%x2ppp1\""
param *.eNodeB2.x2App[44].client.connectAddress "\"eNodeB60%x2ppp0\""
param *.eNodeB2.x2App[45].client.connectAddress "\"eNodeB62%x2ppp0\""
param *.eNodeB2.x2App[46].client.connectAddress "\"eNodeB63%x2ppp0\""
param *.eNodeB2.x2App[47].client.connectAddress "\"eNodeB64%x2ppp0\""
param *.eNodeB2.x2App[48].client.connectAddress "\"eNodeB65%x2ppp0\""
param *.eNodeB2.x2App[49].client.connectAddress "\"eNodeB66%x2ppp1\""
param *.eNodeB2.x2App[4].client.connectAddress "\"eNodeB4%x2ppp0\""
param *.eNodeB2.x2App[5].client.connectAddress "\"eNodeB6%x2ppp1\""
param *.eNodeB2.x2App[6].client.connectAddress "\"eNodeB8%x2ppp0\""
param *.eNodeB2.x2App[7].client.connectAddress "\"eNodeB9%x2ppp1\""
param *.eNodeB2.x2App[8].client.connectAddress "\"eNodeB10%x2ppp0\""
param *.eNodeB2.x2App[9].client.connectAddress "\"eNodeB12%x2ppp0\""
param *.eNodeB20.numX2Apps 24
param *.eNodeB20.x2App[0].client.connectAddress "\"eNodeB2%x2ppp15\""
param *.eNodeB20.x2App[10].client.connectAddress "\"eNodeB27%x2ppp14\""
param *.eNodeB20.x2App[11].client.connectAddress "\"eNodeB29%x2ppp12\""
param *.eNodeB20.x2App[12].client.connectAddress "\"eNodeB30%x2ppp12\""
param *.eNodeB20.x2App[13].client.connectAddress "\"eNodeB32%x2ppp11\""
param *.eNodeB20.x2App[14].client.connectAddress "\"eNodeB33%x2ppp9\""
param *.eNodeB20.x2App[15].client.connectAddress "\"eNodeB34%x2ppp16\""
param *.eNodeB20.x2App[16].client.connectAddress "\"eNodeB45%x2ppp12\""
param *.eNodeB20.x2App[17].client.connectAddress "\"eNodeB46%x2ppp11\""
param *.eNodeB20.x2App[18].client.connectAddress "\"eNodeB51%x2ppp9\""
param *.eNodeB20.x2App[19].client.connectAddress "\"eNodeB52%x2ppp15\""
param *.eNodeB20.x2App[1].client.connectAddress "\"eNodeB3%x2ppp10\""
param *.eNodeB20.x2App[20].client.connectAddress "\"eNodeB53%x2ppp16\""
param *.eNodeB20.x2App[21].client.connectAddress "\"eNodeB55%x2ppp8\""
param *.eNodeB20.x2App[22].client.connectAddress "\"eNodeB56%x2ppp4\""
param *.eNodeB20.x2App[23].client.connectAddress "\"eNodeB62%x2ppp8\""
param *.eNodeB20.x2App[2].client.connectAddress "\"eNodeB4%x2ppp6\""
param *.eNodeB20.x2App[3].client.connectAddress "\"eNodeB5%x2ppp16\""
param *.eNodeB20.x2App[4].client.connectAddress "\"eNodeB6%x2ppp10\""
param *.eNodeB20.x2App[5].client.connectAddress "\"eNodeB9%x2ppp14\""
param *.eNodeB20.x2App[6].client.connectAddress "\"eNodeB12%x2ppp6\""
param *.eNodeB20.x2App[7].client.connectAddress "\"eNodeB17%x2ppp7\""
param *.eNodeB20.x2App[8].client.connectAddress "\"eNodeB49%x2ppp8\""
param *.eNodeB20.x2App[9].client.connectAddress "\"eNodeB25%x2ppp15\""
param *.eNodeB21.numX2Apps 6
param *.eNodeB21.x2App[0].client.connectAddress "\"eNodeB12%x2ppp7\""
param *.eNodeB21.x2App[1].client.connectAddress "\"eNodeB23%x2ppp7\""
param *.eNodeB21.x2App[2].client.connectAddress "\"eNodeB36%x2ppp4\""
param *.eNodeB21.x2App[3].client.connectAddress "\"eNodeB38%x2ppp8\""
param *.eNodeB21.x2App[4].client.connectAddress "\"eNodeB44%x2ppp9\""
param *.eNodeB21.x2App[5].client.connectAddress "\"eNodeB62%x2ppp9\""
param *.eNodeB22.numX2Apps 29
param *.eNodeB22.x2App[0].client.connectAddress "\"eNodeB1%x2ppp7\""
param *.eNodeB22.x2App[10].client.connectAddress "\"eNodeB29%x2ppp13\""
param *.eNodeB22.x2App[11].client.connectAddress "\"eNodeB31%x2ppp14\""
param *.eNodeB22.x2App[12].client.connectAddress "\"eNodeB33%x2ppp10\""
param *.eNodeB22.x2App[13].client.connectAddress "\"eNodeB34%x2ppp17\""
param *.eNodeB22.x2App[14].client.connectAddress "\"eNodeB35%x2ppp14\""
param *.eNodeB22.x2App[15].client.connectAddress "\"eNodeB37%x2ppp10\""
param *.eNodeB22.x2App[16].client.connectAddress "\"eNodeB40%x2ppp11\""
param *.eNodeB22.x2App[17].client.connectAddress "\"eNodeB41%x2ppp11\""
param *.eNodeB22.x2App[18].client.connectAddress "\"eNodeB42%x2ppp7\""
param *.eNodeB22.x2App[19].client.connectAddress "\"eNodeB43%x2ppp7\""
param *.eNodeB22.x2App[1].client.connectAddress "\"eNodeB5%x2ppp17\""
param *.eNodeB22.x2App[20].client.connectAddress "\"eNodeB45%x2ppp13\""
param *.eNodeB22.x2App[21].client.connectAddress "\"eNodeB48%x2ppp14\""
param *.eNodeB22.x2App[22].client.connectAddress "\"eNodeB50%x2ppp9\""
param *.eNodeB22.x2App[23].client.connectAddress "\"eNodeB51%x2ppp10\""
param *.eNodeB22.x2App[24].client.connectAddress "\"eNodeB52%x2ppp16\""
param *.eNodeB22.x2App[25].client.connectAddress "\"eNodeB53%x2ppp17\""
param *.eNodeB22.x2App[26].client.connectAddress "\"eNodeB58%x2ppp13\""
param *.eNodeB22.x2App[27].client.connectAddress "\"eNodeB63%x2ppp12\""
param *.eNodeB22.x2App[28].client.connectAddress "\"eNodeB66%x2ppp13\""
param *.eNodeB22.x2App[2].client.connectAddress "\"eNodeB6%x2ppp11\""
param *.eNodeB22.x2App[3].client.connectAddress "\"eNodeB9%x2ppp15\""
param *.eNodeB22.x2App[4].client.connectAddress "\"eNodeB11%x2ppp6\""
param *.eNodeB22.x2App[5].client.connectAddress "\"eNodeB14%x2ppp11\""
param *.eNodeB22.x2App[6].client.connectAddress "\"eNodeB18%x2ppp13\""
param *.eNodeB22.x2App[7].client.connectAddress "\"eNodeB19%x2ppp13\""
param *.eNodeB22.x2App[8].client.connectAddress "\"eNodeB54%x2ppp10\""
param *.eNodeB22.x2App[9].client.connectAddress "\"eNodeB27%x2ppp15\""
param *.eNodeB23.numX2Apps 17
param *.eNodeB23.x2App[0].client.connectAddress "\"eNodeB2%x2ppp16\""
param *.eNodeB23.x2App[10].client.connectAddress "\"eNodeB44%x2ppp10\""
param *.eNodeB23.x2App[11].client.connectAddress "\"eNodeB30%x2ppp13\""
param *.eNodeB23.x2App[12].client.connectAddress "\"eNodeB32%x2ppp12\""
param *.eNodeB23.x2App[13].client.connectAddress "\"eNodeB46%x2ppp12\""
param *.eNodeB23.x2App[14].client.connectAddress "\"eNodeB47%x2ppp13\""
param *.eNodeB23.x2App[15].client.connectAddress "\"eNodeB62%x2ppp10\""
param *.eNodeB23.x2App[16].client.connectAddress "\"eNodeB64%x2ppp11\""
param *.eNodeB23.x2App[1].client.connectAddress "\"eNodeB3%x2ppp11\""
param *.eNodeB23.x2App[2].client.connectAddress "\"eNodeB7%x2ppp11\""
param *.eNodeB23.x2App[3].client.connectAddress "\"eNodeB8%x2ppp11\""
param *.eNodeB23.x2App[4].client.connectAddress "\"eNodeB10%x2ppp11\""
param *.eNodeB23.x2App[5].client.connectAddress "\"eNodeB12%x2ppp8\""
param *.eNodeB23.x2App[6].client.connectAddress "\"eNodeB15%x2ppp9\""
param *.eNodeB23.x2App[7].client.connectAddress "\"eNodeB21%x2ppp1\""
param *.eNodeB23.x2App[8].client.connectAddress "\"eNodeB36%x2ppp5\""
param *.eNodeB23.x2App[9].client.connectAddress "\"eNodeB38%x2ppp9\""
param *.eNodeB24.numX2Apps 22
param *.eNodeB24.x2App[0].client.connectAddress "\"eNodeB7%x2ppp12\""
param *.eNodeB24.x2App[10].client.connectAddress "\"eNodeB65%x2ppp10\""
param *.eNodeB24.x2App[11].client.connectAddress "\"eNodeB26%x2ppp2\""
param *.eNodeB24.x2App[12].client.connectAddress "\"eNodeB28%x2ppp11\""
param *.eNodeB24.x2App[13].client.connectAddress "\"eNodeB31%x2ppp15\""
param *.eNodeB24.x2App[14].client.connectAddress "\"eNodeB35%x2ppp15\""
param *.eNodeB24.x2App[15].client.connectAddress "\"eNodeB39%x2ppp4\""
param *.eNodeB24.x2App[16].client.connectAddress "\"eNodeB47%x2ppp14\""
param *.eNodeB24.x2App[17].client.connectAddress "\"eNodeB48%x2ppp15\""
param *.eNodeB24.x2App[18].client.connectAddress "\"eNodeB57%x2ppp11\""
param *.eNodeB24.x2App[19].client.connectAddress "\"eNodeB61%x2ppp2\""
param *.eNodeB24.x2App[1].client.connectAddress "\"eNodeB8%x2ppp12\""
param *.eNodeB24.x2App[20].client.connectAddress "\"eNodeB63%x2ppp13\""
param *.eNodeB24.x2App[21].client.connectAddress "\"eNodeB64%x2ppp12\""
param *.eNodeB24.x2App[2].client.connectAddress "\"eNodeB10%x2ppp12\""
param *.eNodeB24.x2App[3].client.connectAddress "\"eNodeB13%x2ppp11\""
param *.eNodeB24.x2App[4].client.connectAddress "\"eNodeB15%x2ppp10\""
param *.eNodeB24.x2App[5].client.connectAddress "\"eNodeB16%x2ppp1\""
param *.eNodeB24.x2App[6].client.connectAddress "\"eNodeB18%x2ppp14\""
param *.eNodeB24.x2App[7].client.connectAddress "\"eNodeB19%x2ppp14\""
param *.eNodeB24.x2App[8].client.connectAddress "\"eNodeB59%x2ppp8\""
param *.eNodeB24.x2App[9].client.connectAddress "\"eNodeB60%x2ppp11\""
param *.eNodeB25.numX2Apps 44
param *.eNodeB25.x2App[0].client.connectAddress "\"eNodeB1%x2ppp8\""
param *.eNodeB25.x2App[10].client.connectAddress "\"eNodeB12%x2ppp9\""
param *.eNodeB25.x2App[11].client.connectAddress "\"eNodeB13%x2ppp12\""
param *.eNodeB25.x2App[12].client.connectAddress "\"eNodeB14%x2ppp12\""
param *.eNodeB25.x2App[13].client.connectAddress "\"eNodeB17%x2ppp8\""
param *.eNodeB25.x2App[14].client.connectAddress "\"eNodeB19%x2ppp15\""
param *.eNodeB25.x2App[15].client.connectAddress "\"eNodeB20%x2ppp8\""
param *.eNodeB25.x2App[16].client.connectAddress "\"eNodeB46%x2ppp13\""
param *.eNodeB25.x2App[17].client.connectAddress "\"eNodeB52%x2ppp17\""
param *.eNodeB25.x2App[18].client.connectAddress "\"eNodeB27%x2ppp16\""
param *.eNodeB25.x2App[19].client.connectAddress "\"eNodeB29%x2ppp14\""
param *.eNodeB25.x2App[1].client.connectAddress "\"eNodeB2%x2ppp17\""
param *.eNodeB25.x2App[20].client.connectAddress "\"eNodeB30%x2ppp14\""
param *.eNodeB25.x2App[21].client.connectAddress "\"eNodeB31%x2ppp16\""
param *.eNodeB25.x2App[22].client.connectAddress "\"eNodeB32%x2ppp13\""
param *.eNodeB25.x2App[23].client.connectAddress "\"eNodeB33%x2ppp11\""
param *.eNodeB25.x2App[24].client.connectAddress "\"eNodeB34%x2ppp18\""
param *.eNodeB25.x2App[25].client.connectAddress "\"eNodeB35%x2ppp16\""
param *.eNodeB25.x2App[26].client.connectAddress "\"eNodeB37%x2ppp11\""
param *.eNodeB25.x2App[27].client.connectAddress "\"eNodeB38%x2ppp10\""
param *.eNodeB25.x2App[28].client.connectAddress "\"eNodeB41%x2ppp12\""
param *.eNodeB25.x2App[29].client.connectAddress "\"eNodeB42%x2ppp8\""
param *.eNodeB25.x2App[2].client.connectAddress "\"eNodeB3%x2ppp12\""
param *.eNodeB25.x2App[30].client.connectAddress "\"eNodeB44%x2ppp11\""
param *.eNodeB25.x2App[31].client.connectAddress "\"eNodeB45%x2ppp14\""
param *.eNodeB25.x2App[32].client.connectAddress "\"eNodeB47%x2ppp15\""
param *.eNodeB25.x2App[33].client.connectAddress "\"eNodeB49%x2ppp9\""
param *.eNodeB25.x2App[34].client.connectAddress "\"eNodeB50%x2ppp10\""
param *.eNodeB25.x2App[35].client.connectAddress "\"eNodeB51%x2ppp11\""
param *.eNodeB25.x2App[36].client.connectAddress "\"eNodeB53%x2ppp18\""
param *.eNodeB25.x2App[37].client.connectAddress "\"eNodeB55%x2ppp9\""
param *.eNodeB25.x2App[38].client.connectAddress "\"eNodeB56%x2ppp5\""
param *.eNodeB25.x2App[39].client.connectAddress "\"eNodeB57%x2ppp12\""
param *.eNodeB25.x2App[3].client.connectAddress "\"eNodeB4%x2ppp7\""
param *.eNodeB25.x2App[40].client.connectAddress "\"eNodeB58%x2ppp14\""
param *.eNodeB25.x2App[41].client.connectAddress "\"eNodeB62%x2ppp11\""
param *.eNodeB25.x2App[42].client.connectAddress "\"eNodeB63%x2ppp14\""
param *.eNodeB25.x2App[43].client.connectAddress "\"eNodeB66%x2ppp14\""
param *.eNodeB25.x2App[4].client.connectAddress "\"eNodeB5%x2ppp18\""
param *.eNodeB25.x2App[5].client.connectAddress "\"eNodeB6%x2ppp12\""
param *.eNodeB25.x2App[6].client.connectAddress "\"eNodeB7%x2ppp13\""
param *.eNodeB25.x2App[7].client.connectAddress "\"eNodeB8%x2ppp13\""
param *.eNodeB25.x2App[8].client.connectAddress "\"eNodeB9%x2ppp16\""
param *.eNodeB25.x2App[9].client.connectAddress "\"eNodeB10%x2ppp13\""
param *.eNodeB26.numX2Apps 9
param *.eNodeB26.x2App[0].client.connectAddress "\"eNodeB15%x2ppp11\""
param *.eNodeB26.x2App[1].client.connectAddress "\"eNodeB16%x2ppp2\""
param *.eNodeB26.x2App[2].client.connectAddress "\"eNodeB24%x2ppp8\""
param *.eNodeB26.x2App[3].client.connectAddress "\"eNodeB39%x2ppp5\""
param *.eNodeB26.x2App[4].client.connectAddress "\"eNodeB59%x2ppp9\""
param *.eNodeB26.x2App[5].client.connectAddress "\"eNodeB61%x2ppp3\""
param *.eNodeB26.x2App[6].client.connectAddress "\"eNodeB28%x2ppp12\""
param *.eNodeB26.x2App[7].client.connectAddress "\"eNodeB60%x2ppp12\""
param *.eNodeB26.x2App[8].client.connectAddress "\"eNodeB65%x2ppp11\""
param *.eNodeB27.numX2Apps 45
param *.eNodeB27.x2App[0].client.connectAddress "\"eNodeB1%x2ppp9\""
param *.eNodeB27.x2App[10].client.connectAddress "\"eNodeB14%x2ppp13\""
param *.eNodeB27.x2App[11].client.connectAddress "\"eNodeB17%x2ppp9\""
param *.eNodeB27.x2App[12].client.connectAddress "\"eNodeB18%x2ppp15\""
param *.eNodeB27.x2App[13].client.connectAddress "\"eNodeB19%x2ppp16\""
param *.eNodeB27.x2App[14].client.connectAddress "\"eNodeB20%x2ppp9\""
param *.eNodeB27.x2App[15].client.connectAddress "\"eNodeB22%x2ppp8\""
param *.eNodeB27.x2App[16].client.connectAddress "\"eNodeB25%x2ppp16\""
param *.eNodeB27.x2App[17].client.connectAddress "\"eNodeB34%x2ppp19\""
param *.eNodeB27.x2App[18].client.connectAddress "\"eNodeB58%x2ppp15\""
param *.eNodeB27.x2App[19].client.connectAddress "\"eNodeB29%x2ppp15\""
param *.eNodeB27.x2App[1].client.connectAddress "\"eNodeB2%x2ppp18\""
param *.eNodeB27.x2App[20].client.connectAddress "\"eNodeB30%x2ppp15\""
param *.eNodeB27.x2App[21].client.connectAddress "\"eNodeB31%x2ppp17\""
param *.eNodeB27.x2App[22].client.connectAddress "\"eNodeB32%x2ppp14\""
param *.eNodeB27.x2App[23].client.connectAddress "\"eNodeB33%x2ppp12\""
param *.eNodeB27.x2App[24].client.connectAddress "\"eNodeB35%x2ppp17\""
param *.eNodeB27.x2App[25].client.connectAddress "\"eNodeB37%x2ppp12\""
param *.eNodeB27.x2App[26].client.connectAddress "\"eNodeB40%x2ppp12\""
param *.eNodeB27.x2App[27].client.connectAddress "\"eNodeB41%x2ppp13\""
param *.eNodeB27.x2App[28].client.connectAddress "\"eNodeB42%x2ppp9\""
param *.eNodeB27.x2App[29].client.connectAddress "\"eNodeB43%x2ppp8\""
param *.eNodeB27.x2App[2].client.connectAddress "\"eNodeB5%x2ppp19\""
param *.eNodeB27.x2App[30].client.connectAddress "\"eNodeB45%x2ppp15\""
param *.eNodeB27.x2App[31].client.connectAddress "\"eNodeB46%x2ppp14\""
param *.eNodeB27.x2App[32].client.connectAddress "\"eNodeB47%x2ppp16\""
param *.eNodeB27.x2App[33].client.connectAddress "\"eNodeB48%x2ppp16\""
param *.eNodeB27.x2App[34].client.connectAddress "\"eNodeB49%x2ppp10\""
param *.eNodeB27.x2App[35].client.connectAddress "\"eNodeB50%x2ppp11\""
param *.eNodeB27.x2App[36].client.connectAddress "\"eNodeB51%x2ppp12\""
param *.eNodeB27.x2App[37].client.connectAddress "\"eNodeB52%x2ppp18\""
param *.eNodeB27.x2App[38].client.connectAddress "\"eNodeB53%x2ppp19\""
param *.eNodeB27.x2App[39].client.connectAddress "\"eNodeB54%x2ppp11\""
param *.eNodeB27.x2App[3].client.connectAddress "\"eNodeB6%x2ppp13\""
param *.eNodeB27.x2App[40].client.connectAddress "\"eNodeB55%x2ppp10\""
param *.eNodeB27.x2App[41].client.connectAddress "\"eNodeB56%x2ppp6\""
param *.eNodeB27.x2App[42].client.connectAddress "\"eNodeB57%x2ppp13\""
param *.eNodeB27.x2App[43].client.connectAddress "\"eNodeB63%x2ppp15\""
param *.eNodeB27.x2App[44].client.connectAddress "\"eNodeB66%x2ppp15\""
param *.eNodeB27.x2App[4].client.connectAddress "\"eNodeB7%x2ppp14\""
param *.eNodeB27.x2App[5].client.connectAddress "\"eNodeB8%x2ppp14\""
param *.eNodeB27.x2App[6].client.connectAddress "\"eNodeB9%x2ppp17\""
param *.eNodeB27.x2App[7].client.connectAddress "\"eNodeB10%x2ppp14\""
param *.eNodeB27.x2App[8].client.connectAddress "\"eNodeB11%x2ppp7\""
param *.eNodeB27.x2App[9].client.connectAddress "\"eNodeB13%x2ppp13\""
param *.eNodeB28.numX2Apps 26
param *.eNodeB28.x2App[0].client.connectAddress "\"eNodeB2%x2ppp19\""
param *.eNodeB28.x2App[10].client.connectAddress "\"eNodeB19%x2ppp17\""
param *.eNodeB28.x2App[11].client.connectAddress "\"eNodeB24%x2ppp9\""
param *.eNodeB28.x2App[12].client.connectAddress "\"eNodeB26%x2ppp3\""
param *.eNodeB28.x2App[13].client.connectAddress "\"eNodeB60%x2ppp13\""
param *.eNodeB28.x2App[14].client.connectAddress "\"eNodeB64%x2ppp13\""
param *.eNodeB28.x2App[15].client.connectAddress "\"eNodeB31%x2ppp18\""
param *.eNodeB28.x2App[16].client.connectAddress "\"eNodeB35%x2ppp18\""
param *.eNodeB28.x2App[17].client.connectAddress "\"eNodeB39%x2ppp6\""
param *.eNodeB28.x2App[18].client.connectAddress "\"eNodeB47%x2ppp17\""
param *.eNodeB28.x2App[19].client.connectAddress "\"eNodeB48%x2ppp17\""
param *.eNodeB28.x2App[1].client.connectAddress "\"eNodeB5%x2ppp20\""
param *.eNodeB28.x2App[20].client.connectAddress "\"eNodeB57%x2ppp14\""
param *.eNodeB28.x2App[21].client.connectAddress "\"eNodeB58%x2ppp16\""
param *.eNodeB28.x2App[22].client.connectAddress "\"eNodeB59%x2ppp10\""
param *.eNodeB28.x2App[23].client.connectAddress "\"eNodeB61%x2ppp4\""
param *.eNodeB28.x2App[24].client.connectAddress "\"eNodeB63%x2ppp16\""
param *.eNodeB28.x2App[25].client.connectAddress "\"eNodeB65%x2ppp12\""
param *.eNodeB28.x2App[2].client.connectAddress "\"eNodeB7%x2ppp15\""
param *.eNodeB28.x2App[3].client.connectAddress "\"eNodeB8%x2ppp15\""
param *.eNodeB28.x2App[4].client.connectAddress "\"eNodeB9%x2ppp18\""
param *.eNodeB28.x2App[5].client.connectAddress "\"eNodeB10%x2ppp15\""
param *.eNodeB28.x2App[6].client.connectAddress "\"eNodeB13%x2ppp14\""
param *.eNodeB28.x2App[7].client.connectAddress "\"eNodeB15%x2ppp12\""
param *.eNodeB28.x2App[8].client.connectAddress "\"eNodeB16%x2ppp3\""
param *.eNodeB28.x2App[9].client.connectAddress "\"eNodeB18%x2ppp16\""
param *.eNodeB29.numX2Apps 40
param *.eNodeB29.x2App[0].client.connectAddress "\"eNodeB1%x2ppp10\""
param *.eNodeB29.x2App[10].client.connectAddress "\"eNodeB17%x2ppp10\""
param *.eNodeB29.x2App[11].client.connectAddress "\"eNodeB19%x2ppp18\""
param *.eNodeB29.x2App[12].client.connectAddress "\"eNodeB20%x2ppp10\""
param *.eNodeB29.x2App[13].client.connectAddress "\"eNodeB22%x2ppp9\""
param *.eNodeB29.x2App[14].client.connectAddress "\"eNodeB25%x2ppp17\""
param *.eNodeB29.x2App[15].client.connectAddress "\"eNodeB27%x2ppp17\""
param *.eNodeB29.x2App[16].client.connectAddress "\"eNodeB51%x2ppp13\""
param *.eNodeB29.x2App[17].client.connectAddress "\"eNodeB52%x2ppp19\""
param *.eNodeB29.x2App[18].client.connectAddress "\"eNodeB53%x2ppp20\""
param *.eNodeB29.x2App[19].client.connectAddress "\"eNodeB30%x2ppp16\""
param *.eNodeB29.x2App[1].client.connectAddress "\"eNodeB2%x2ppp20\""
param *.eNodeB29.x2App[20].client.connectAddress "\"eNodeB31%x2ppp19\""
param *.eNodeB29.x2App[21].client.connectAddress "\"eNodeB32%x2ppp15\""
param *.eNodeB29.x2App[22].client.connectAddress "\"eNodeB33%x2ppp13\""
param *.eNodeB29.x2App[23].client.connectAddress "\"eNodeB34%x2ppp20\""
param *.eNodeB29.x2App[24].client.connectAddress "\"eNodeB35%x2ppp19\""
param *.eNodeB29.x2App[25].client.connectAddress "\"eNodeB37%x2ppp13\""
param *.eNodeB29.x2App[26].client.connectAddress "\"eNodeB41%x2ppp14\""
param *.eNodeB29.x2App[27].client.connectAddress "\"eNodeB42%x2ppp10\""
param *.eNodeB29.x2App[28].client.connectAddress "\"eNodeB43%x2ppp9\""
param *.eNodeB29.x2App[29].client.connectAddress "\"eNodeB45%x2ppp16\""
param *.eNodeB29.x2App[2].client.connectAddress "\"eNodeB3%x2ppp13\""
param *.eNodeB29.x2App[30].client.connectAddress "\"eNodeB46%x2ppp15\""
param *.eNodeB29.x2App[31].client.connectAddress "\"eNodeB47%x2ppp18\""
param *.eNodeB29.x2App[32].client.connectAddress "\"eNodeB49%x2ppp11\""
param *.eNodeB29.x2App[33].client.connectAddress "\"eNodeB50%x2ppp12\""
param *.eNodeB29.x2App[34].client.connectAddress "\"eNodeB54%x2ppp12\""
param *.eNodeB29.x2App[35].client.connectAddress "\"eNodeB55%x2ppp11\""
param *.eNodeB29.x2App[36].client.connectAddress "\"eNodeB56%x2ppp7\""
param *.eNodeB29.x2App[37].client.connectAddress "\"eNodeB58%x2ppp17\""
param *.eNodeB29.x2App[38].client.connectAddress "\"eNodeB62%x2ppp12\""
param *.eNodeB29.x2App[39].client.connectAddress "\"eNodeB66%x2ppp16\""
param *.eNodeB29.x2App[3].client.connectAddress "\"eNodeB4%x2ppp8\""
param *.eNodeB29.x2App[4].client.connectAddress "\"eNodeB5%x2ppp21\""
param *.eNodeB29.x2App[5].client.connectAddress "\"eNodeB6%x2ppp14\""
param *.eNodeB29.x2App[6].client.connectAddress "\"eNodeB7%x2ppp16\""
param *.eNodeB29.x2App[7].client.connectAddress "\"eNodeB8%x2ppp16\""
param *.eNodeB29.x2App[8].client.connectAddress "\"eNodeB9%x2ppp19\""
param *.eNodeB29.x2App[9].client.connectAddress "\"eNodeB14%x2ppp14\""
param *.eNodeB3.numX2Apps 28
param *.eNodeB3.x2App[0].client.connectAddress "\"eNodeB2%x2ppp0\""
param *.eNodeB3.x2App[10].client.connectAddress "\"eNodeB13%x2ppp1\""
param *.eNodeB3.x2App[11].client.connectAddress "\"eNodeB17%x2ppp1\""
param *.eNodeB3.x2App[12].client.connectAddress "\"eNodeB20%x2ppp1\""
param *.eNodeB3.x2App[13].client.connectAddress "\"eNodeB23%x2ppp1\""
param *.eNodeB3.x2App[14].client.connectAddress "\"eNodeB25%x2ppp2\""
param *.eNodeB3.x2App[15].client.connectAddress "\"eNodeB29%x2ppp2\""
param *.eNodeB3.x2App[16].client.connectAddress "\"eNodeB30%x2ppp1\""
param *.eNodeB3.x2App[17].client.connectAddress "\"eNodeB32%x2ppp1\""
param *.eNodeB3.x2App[18].client.connectAddress "\"eNodeB34%x2ppp2\""
param *.eNodeB3.x2App[19].client.connectAddress "\"eNodeB36%x2ppp1\""
param *.eNodeB3.x2App[1].client.connectAddress "\"eNodeB12%x2ppp1\""
param *.eNodeB3.x2App[20].client.connectAddress "\"eNodeB38%x2ppp1\""
param *.eNodeB3.x2App[21].client.connectAddress "\"eNodeB44%x2ppp1\""
param *.eNodeB3.x2App[22].client.connectAddress "\"eNodeB47%x2ppp1\""
param *.eNodeB3.x2App[23].client.connectAddress "\"eNodeB49%x2ppp1\""
param *.eNodeB3.x2App[24].client.connectAddress "\"eNodeB51%x2ppp2\""
param *.eNodeB3.x2App[25].client.connectAddress "\"eNodeB52%x2ppp2\""
param *.eNodeB3.x2App[26].client.connectAddress "\"eNodeB53%x2ppp2\""
param *.eNodeB3.x2App[27].client.connectAddress "\"eNodeB55%x2ppp1\""
param *.eNodeB3.x2App[2].client.connectAddress "\"eNodeB46%x2ppp1\""
param *.eNodeB3.x2App[3].client.connectAddress "\"eNodeB62%x2ppp1\""
param *.eNodeB3.x2App[4].client.connectAddress "\"eNodeB4%x2ppp1\""
param *.eNodeB3.x2App[5].client.connectAddress "\"eNodeB5%x2ppp2\""
param *.eNodeB3.x2App[6].client.connectAddress "\"eNodeB7%x2ppp1\""
param *.eNodeB3.x2App[7].client.connectAddress "\"eNodeB8%x2ppp1\""
param *.eNodeB3.x2App[8].client.connectAddress "\"eNodeB9%x2ppp2\""
param *.eNodeB3.x2App[9].client.connectAddress "\"eNodeB10%x2ppp1\""
param *.eNodeB30.numX2Apps 35
param *.eNodeB30.x2App[0].client.connectAddress "\"eNodeB2%x2ppp21\""
param *.eNodeB30.x2App[10].client.connectAddress "\"eNodeB15%x2ppp13\""
param *.eNodeB30.x2App[11].client.connectAddress "\"eNodeB17%x2ppp11\""
param *.eNodeB30.x2App[12].client.connectAddress "\"eNodeB20%x2ppp11\""
param *.eNodeB30.x2App[13].client.connectAddress "\"eNodeB23%x2ppp8\""
param *.eNodeB30.x2App[14].client.connectAddress "\"eNodeB25%x2ppp18\""
param *.eNodeB30.x2App[15].client.connectAddress "\"eNodeB27%x2ppp18\""
param *.eNodeB30.x2App[16].client.connectAddress "\"eNodeB29%x2ppp16\""
param *.eNodeB30.x2App[17].client.connectAddress "\"eNodeB32%x2ppp16\""
param *.eNodeB30.x2App[18].client.connectAddress "\"eNodeB62%x2ppp13\""
param *.eNodeB30.x2App[19].client.connectAddress "\"eNodeB31%x2ppp20\""
param *.eNodeB30.x2App[1].client.connectAddress "\"eNodeB3%x2ppp14\""
param *.eNodeB30.x2App[20].client.connectAddress "\"eNodeB34%x2ppp21\""
param *.eNodeB30.x2App[21].client.connectAddress "\"eNodeB35%x2ppp20\""
param *.eNodeB30.x2App[22].client.connectAddress "\"eNodeB36%x2ppp6\""
param *.eNodeB30.x2App[23].client.connectAddress "\"eNodeB38%x2ppp11\""
param *.eNodeB30.x2App[24].client.connectAddress "\"eNodeB44%x2ppp12\""
param *.eNodeB30.x2App[25].client.connectAddress "\"eNodeB46%x2ppp16\""
param *.eNodeB30.x2App[26].client.connectAddress "\"eNodeB47%x2ppp19\""
param *.eNodeB30.x2App[27].client.connectAddress "\"eNodeB49%x2ppp12\""
param *.eNodeB30.x2App[28].client.connectAddress "\"eNodeB51%x2ppp14\""
param *.eNodeB30.x2App[29].client.connectAddress "\"eNodeB52%x2ppp20\""
param *.eNodeB30.x2App[2].client.connectAddress "\"eNodeB4%x2ppp9\""
param *.eNodeB30.x2App[30].client.connectAddress "\"eNodeB53%x2ppp21\""
param *.eNodeB30.x2App[31].client.connectAddress "\"eNodeB55%x2ppp12\""
param *.eNodeB30.x2App[32].client.connectAddress "\"eNodeB57%x2ppp15\""
param *.eNodeB30.x2App[33].client.connectAddress "\"eNodeB63%x2ppp17\""
param *.eNodeB30.x2App[34].client.connectAddress "\"eNodeB64%x2ppp14\""
param *.eNodeB30.x2App[3].client.connectAddress "\"eNodeB5%x2ppp22\""
param *.eNodeB30.x2App[4].client.connectAddress "\"eNodeB7%x2ppp17\""
param *.eNodeB30.x2App[5].client.connectAddress "\"eNodeB8%x2ppp17\""
param *.eNodeB30.x2App[6].client.connectAddress "\"eNodeB9%x2ppp20\""
param *.eNodeB30.x2App[7].client.connectAddress "\"eNodeB10%x2ppp16\""
param *.eNodeB30.x2App[8].client.connectAddress "\"eNodeB12%x2ppp10\""
param *.eNodeB30.x2App[9].client.connectAddress "\"eNodeB13%x2ppp15\""
param *.eNodeB31.numX2Apps 42
param *.eNodeB31.x2App[0].client.connectAddress "\"eNodeB1%x2ppp11\""
param *.eNodeB31.x2App[10].client.connectAddress "\"eNodeB14%x2ppp15\""
param *.eNodeB31.x2App[11].client.connectAddress "\"eNodeB15%x2ppp14\""
param *.eNodeB31.x2App[12].client.connectAddress "\"eNodeB18%x2ppp17\""
param *.eNodeB31.x2App[13].client.connectAddress "\"eNodeB19%x2ppp19\""
param *.eNodeB31.x2App[14].client.connectAddress "\"eNodeB22%x2ppp10\""
param *.eNodeB31.x2App[15].client.connectAddress "\"eNodeB24%x2ppp10\""
param *.eNodeB31.x2App[16].client.connectAddress "\"eNodeB25%x2ppp19\""
param *.eNodeB31.x2App[17].client.connectAddress "\"eNodeB27%x2ppp19\""
param *.eNodeB31.x2App[18].client.connectAddress "\"eNodeB28%x2ppp13\""
param *.eNodeB31.x2App[19].client.connectAddress "\"eNodeB29%x2ppp17\""
param *.eNodeB31.x2App[1].client.connectAddress "\"eNodeB2%x2ppp22\""
param *.eNodeB31.x2App[20].client.connectAddress "\"eNodeB30%x2ppp17\""
param *.eNodeB31.x2App[21].client.connectAddress "\"eNodeB63%x2ppp18\""
param *.eNodeB31.x2App[22].client.connectAddress "\"eNodeB32%x2ppp17\""
param *.eNodeB31.x2App[23].client.connectAddress "\"eNodeB34%x2ppp22\""
param *.eNodeB31.x2App[24].client.connectAddress "\"eNodeB35%x2ppp21\""
param *.eNodeB31.x2App[25].client.connectAddress "\"eNodeB40%x2ppp13\""
param *.eNodeB31.x2App[26].client.connectAddress "\"eNodeB41%x2ppp15\""
param *.eNodeB31.x2App[27].client.connectAddress "\"eNodeB44%x2ppp13\""
param *.eNodeB31.x2App[28].client.connectAddress "\"eNodeB45%x2ppp17\""
param *.eNodeB31.x2App[29].client.connectAddress "\"eNodeB46%x2ppp17\""
param *.eNodeB31.x2App[2].client.connectAddress "\"eNodeB5%x2ppp23\""
param *.eNodeB31.x2App[30].client.connectAddress "\"eNodeB47%x2ppp20\""
param *.eNodeB31.x2App[31].client.connectAddress "\"eNodeB48%x2ppp18\""
param *.eNodeB31.x2App[32].client.connectAddress "\"eNodeB52%x2ppp21\""
param *.eNodeB31.x2App[33].client.connectAddress "\"eNodeB53%x2ppp22\""
param *.eNodeB31.x2App[34].client.connectAddress "\"eNodeB54%x2ppp13\""
param *.eNodeB31.x2App[35].client.connectAddress "\"eNodeB57%x2ppp16\""
param *.eNodeB31.x2App[36].client.connectAddress "\"eNodeB58%x2ppp18\""
param *.eNodeB31.x2App[37].client.connectAddress "\"eNodeB59%x2ppp11\""
param *.eNodeB31.x2App[38].client.connectAddress "\"eNodeB60%x2ppp14\""
param *.eNodeB31.x2App[39].client.connectAddress "\"eNodeB64%x2ppp15\""
param *.eNodeB31.x2App[3].client.connectAddress "\"eNodeB6%x2ppp15\""
param *.eNodeB31.x2App[40].client.connectAddress "\"eNodeB65%x2ppp13\""
param *.eNodeB31.x2App[41].client.connectAddress "\"eNodeB66%x2ppp17\""
param *.eNodeB31.x2App[4].client.connectAddress "\"eNodeB7%x2ppp18\""
param *.eNodeB31.x2App[5].client.connectAddress "\"eNodeB8%x2ppp18\""
param *.eNodeB31.x2App[6].client.connectAddress "\"eNodeB9%x2ppp21\""
param *.eNodeB31.x2App[7].client.connectAddress "\"eNodeB10%x2ppp17\""
param *.eNodeB31.x2App[8].client.connectAddress "\"eNodeB11%x2ppp8\""
param *.eNodeB31.x2App[9].client.connectAddress "\"eNodeB13%x2ppp16\""
param *.eNodeB32.numX2Apps 35
param *.eNodeB32.x2App[0].client.connectAddress "\"eNodeB2%x2ppp23\""
param *.eNodeB32.x2App[10].client.connectAddress "\"eNodeB17%x2ppp12\""
param *.eNodeB32.x2App[11].client.connectAddress "\"eNodeB20%x2ppp12\""
param *.eNodeB32.x2App[12].client.connectAddress "\"eNodeB23%x2ppp9\""
param *.eNodeB32.x2App[13].client.connectAddress "\"eNodeB25%x2ppp20\""
param *.eNodeB32.x2App[14].client.connectAddress "\"eNodeB27%x2ppp20\""
param *.eNodeB32.x2App[15].client.connectAddress "\"eNodeB29%x2ppp18\""
param *.eNodeB32.x2App[16].client.connectAddress "\"eNodeB30%x2ppp18\""
param *.eNodeB32.x2App[17].client.connectAddress "\"eNodeB31%x2ppp21\""
param *.eNodeB32.x2App[18].client.connectAddress "\"eNodeB46%x2ppp18\""
param *.eNodeB32.x2App[19].client.connectAddress "\"eNodeB34%x2ppp23\""
param *.eNodeB32.x2App[1].client.connectAddress "\"eNodeB3%x2ppp15\""
param *.eNodeB32.x2App[20].client.connectAddress "\"eNodeB35%x2ppp22\""
param *.eNodeB32.x2App[21].client.connectAddress "\"eNodeB36%x2ppp7\""
param *.eNodeB32.x2App[22].client.connectAddress "\"eNodeB38%x2ppp12\""
param *.eNodeB32.x2App[23].client.connectAddress "\"eNodeB44%x2ppp14\""
param *.eNodeB32.x2App[24].client.connectAddress "\"eNodeB47%x2ppp21\""
param *.eNodeB32.x2App[25].client.connectAddress "\"eNodeB49%x2ppp13\""
param *.eNodeB32.x2App[26].client.connectAddress "\"eNodeB51%x2ppp15\""
param *.eNodeB32.x2App[27].client.connectAddress "\"eNodeB52%x2ppp22\""
param *.eNodeB32.x2App[28].client.connectAddress "\"eNodeB53%x2ppp23\""
param *.eNodeB32.x2App[29].client.connectAddress "\"eNodeB55%x2ppp13\""
param *.eNodeB32.x2App[2].client.connectAddress "\"eNodeB4%x2ppp10\""
param *.eNodeB32.x2App[30].client.connectAddress "\"eNodeB57%x2ppp17\""
param *.eNodeB32.x2App[31].client.connectAddress "\"eNodeB58%x2ppp19\""
param *.eNodeB32.x2App[32].client.connectAddress "\"eNodeB62%x2ppp14\""
param *.eNodeB32.x2App[33].client.connectAddress "\"eNodeB63%x2ppp19\""
param *.eNodeB32.x2App[34].client.connectAddress "\"eNodeB64%x2ppp16\""
param *.eNodeB32.x2App[3].client.connectAddress "\"eNodeB5%x2ppp24\""
param *.eNodeB32.x2App[4].client.connectAddress "\"eNodeB7%x2ppp19\""
param *.eNodeB32.x2App[5].client.connectAddress "\"eNodeB8%x2ppp19\""
param *.eNodeB32.x2App[6].client.connectAddress "\"eNodeB9%x2ppp22\""
param *.eNodeB32.x2App[7].client.connectAddress "\"eNodeB10%x2ppp18\""
param *.eNodeB32.x2App[8].client.connectAddress "\"eNodeB12%x2ppp11\""
param *.eNodeB32.x2App[9].client.connectAddress "\"eNodeB13%x2ppp17\""
param *.eNodeB33.numX2Apps 31
param *.eNodeB33.x2App[0].client.connectAddress "\"eNodeB1%x2ppp12\""
param *.eNodeB33.x2App[10].client.connectAddress "\"eNodeB22%x2ppp11\""
param *.eNodeB33.x2App[11].client.connectAddress "\"eNodeB25%x2ppp21\""
param *.eNodeB33.x2App[12].client.connectAddress "\"eNodeB27%x2ppp21\""
param *.eNodeB33.x2App[13].client.connectAddress "\"eNodeB29%x2ppp19\""
param *.eNodeB33.x2App[14].client.connectAddress "\"eNodeB45%x2ppp18\""
param *.eNodeB33.x2App[15].client.connectAddress "\"eNodeB51%x2ppp16\""
param *.eNodeB33.x2App[16].client.connectAddress "\"eNodeB34%x2ppp24\""
param *.eNodeB33.x2App[17].client.connectAddress "\"eNodeB37%x2ppp14\""
param *.eNodeB33.x2App[18].client.connectAddress "\"eNodeB41%x2ppp16\""
param *.eNodeB33.x2App[19].client.connectAddress "\"eNodeB42%x2ppp11\""
param *.eNodeB33.x2App[1].client.connectAddress "\"eNodeB2%x2ppp24\""
param *.eNodeB33.x2App[20].client.connectAddress "\"eNodeB43%x2ppp10\""
param *.eNodeB33.x2App[21].client.connectAddress "\"eNodeB46%x2ppp19\""
param *.eNodeB33.x2App[22].client.connectAddress "\"eNodeB49%x2ppp14\""
param *.eNodeB33.x2App[23].client.connectAddress "\"eNodeB50%x2ppp13\""
param *.eNodeB33.x2App[24].client.connectAddress "\"eNodeB52%x2ppp23\""
param *.eNodeB33.x2App[25].client.connectAddress "\"eNodeB53%x2ppp24\""
param *.eNodeB33.x2App[26].client.connectAddress "\"eNodeB54%x2ppp14\""
param *.eNodeB33.x2App[27].client.connectAddress "\"eNodeB55%x2ppp14\""
param *.eNodeB33.x2App[28].client.connectAddress "\"eNodeB56%x2ppp8\""
param *.eNodeB33.x2App[29].client.connectAddress "\"eNodeB58%x2ppp20\""
param *.eNodeB33.x2App[2].client.connectAddress "\"eNodeB4%x2ppp11\""
param *.eNodeB33.x2App[30].client.connectAddress "\"eNodeB66%x2ppp18\""
param *.eNodeB33.x2App[3].client.connectAddress "\"eNodeB5%x2ppp25\""
param *.eNodeB33.x2App[4].client.connectAddress "\"eNodeB6%x2ppp16\""
param *.eNodeB33.x2App[5].client.connectAddress "\"eNodeB9%x2ppp23\""
param *.eNodeB33.x2App[6].client.connectAddress "\"eNodeB11%x2ppp9\""
param *.eNodeB33.x2App[7].client.connectAddress "\"eNodeB14%x2ppp16\""
param *.eNodeB33.x2App[8].client.connectAddress "\"eNodeB17%x2ppp13\""
param *.eNodeB33.x2App[9].client.connectAddress "\"eNodeB20%x2ppp13\""
param *.eNodeB34.numX2Apps 47
param *.eNodeB34.x2App[0].client.connectAddress "\"eNodeB1%x2ppp13\""
param *.eNodeB34.x2App[10].client.connectAddress "\"eNodeB11%x2ppp10\""
param *.eNodeB34.x2App[11].client.connectAddress "\"eNodeB13%x2ppp18\""
param *.eNodeB34.x2App[12].client.connectAddress "\"eNodeB14%x2ppp17\""
param *.eNodeB34.x2App[13].client.connectAddress "\"eNodeB17%x2ppp14\""
param *.eNodeB34.x2App[14].client.connectAddress "\"eNodeB18%x2ppp18\""
param *.eNodeB34.x2App[15].client.connectAddress "\"eNodeB19%x2ppp20\""
param *.eNodeB34.x2App[16].client.connectAddress "\"eNodeB20%x2ppp14\""
param *.eNodeB34.x2App[17].client.connectAddress "\"eNodeB22%x2ppp12\""
param *.eNodeB34.x2App[18].client.connectAddress "\"eNodeB25%x2ppp22\""
param *.eNodeB34.x2App[19].client.connectAddress "\"eNodeB27%x2ppp22\""
param *.eNodeB34.x2App[1].client.connectAddress "\"eNodeB2%x2ppp25\""
param *.eNodeB34.x2App[20].client.connectAddress "\"eNodeB29%x2ppp20\""
param *.eNodeB34.x2App[21].client.connectAddress "\"eNodeB30%x2ppp19\""
param *.eNodeB34.x2App[22].client.connectAddress "\"eNodeB31%x2ppp22\""
param *.eNodeB34.x2App[23].client.connectAddress "\"eNodeB32%x2ppp18\""
param *.eNodeB34.x2App[24].client.connectAddress "\"eNodeB33%x2ppp14\""
param *.eNodeB34.x2App[25].client.connectAddress "\"eNodeB53%x2ppp25\""
param *.eNodeB34.x2App[26].client.connectAddress "\"eNodeB35%x2ppp23\""
param *.eNodeB34.x2App[27].client.connectAddress "\"eNodeB37%x2ppp15\""
param *.eNodeB34.x2App[28].client.connectAddress "\"eNodeB40%x2ppp14\""
param *.eNodeB34.x2App[29].client.connectAddress "\"eNodeB41%x2ppp17\""
param *.eNodeB34.x2App[2].client.connectAddress "\"eNodeB3%x2ppp16\""
param *.eNodeB34.x2App[30].client.connectAddress "\"eNodeB42%x2ppp12\""
param *.eNodeB34.x2App[31].client.connectAddress "\"eNodeB43%x2ppp11\""
param *.eNodeB34.x2App[32].client.connectAddress "\"eNodeB45%x2ppp19\""
param *.eNodeB34.x2App[33].client.connectAddress "\"eNodeB46%x2ppp20\""
param *.eNodeB34.x2App[34].client.connectAddress "\"eNodeB47%x2ppp22\""
param *.eNodeB34.x2App[35].client.connectAddress "\"eNodeB48%x2ppp19\""
param *.eNodeB34.x2App[36].client.connectAddress "\"eNodeB49%x2ppp15\""
param *.eNodeB34.x2App[37].client.connectAddress "\"eNodeB50%x2ppp14\""
param *.eNodeB34.x2App[38].client.connectAddress "\"eNodeB51%x2ppp17\""
param *.eNodeB34.x2App[39].client.connectAddress "\"eNodeB52%x2ppp24\""
param *.eNodeB34.x2App[3].client.connectAddress "\"eNodeB4%x2ppp12\""
param *.eNodeB34.x2App[40].client.connectAddress "\"eNodeB54%x2ppp15\""
param *.eNodeB34.x2App[41].client.connectAddress "\"eNodeB55%x2ppp15\""
param *.eNodeB34.x2App[42].client.connectAddress "\"eNodeB56%x2ppp9\""
param *.eNodeB34.x2App[43].client.connectAddress "\"eNodeB57%x2ppp18\""
param *.eNodeB34.x2App[44].client.connectAddress "\"eNodeB58%x2ppp21\""
param *.eNodeB34.x2App[45].client.connectAddress "\"eNodeB63%x2ppp20\""
param *.eNodeB34.x2App[46].client.connectAddress "\"eNodeB66%x2ppp19\""
param *.eNodeB34.x2App[4].client.connectAddress "\"eNodeB5%x2ppp26\""
param *.eNodeB34.x2App[5].client.connectAddress "\"eNodeB6%x2ppp17\""
param *.eNodeB34.x2App[6].client.connectAddress "\"eNodeB7%x2ppp20\""
param *.eNodeB34.x2App[7].client.connectAddress "\"eNodeB8%x2ppp20\""
param *.eNodeB34.x2App[8].client.connectAddress "\"eNodeB9%x2ppp24\""
param *.eNodeB34.x2App[9].client.connectAddress "\"eNodeB10%x2ppp19\""
param *.eNodeB35.numX2Apps 45
param *.eNodeB35.x2App[0].client.connectAddress "\"eNodeB1%x2ppp14\""
param *.eNodeB35.x2App[10].client.connectAddress "\"eNodeB14%x2ppp18\""
param *.eNodeB35.x2App[11].client.connectAddress "\"eNodeB15%x2ppp15\""
param *.eNodeB35.x2App[12].client.connectAddress "\"eNodeB18%x2ppp19\""
param *.eNodeB35.x2App[13].client.connectAddress "\"eNodeB19%x2ppp21\""
param *.eNodeB35.x2App[14].client.connectAddress "\"eNodeB22%x2ppp13\""
param *.eNodeB35.x2App[15].client.connectAddress "\"eNodeB24%x2ppp11\""
param *.eNodeB35.x2App[16].client.connectAddress "\"eNodeB25%x2ppp23\""
param *.eNodeB35.x2App[17].client.connectAddress "\"eNodeB27%x2ppp23\""
param *.eNodeB35.x2App[18].client.connectAddress "\"eNodeB28%x2ppp14\""
param *.eNodeB35.x2App[19].client.connectAddress "\"eNodeB29%x2ppp21\""
param *.eNodeB35.x2App[1].client.connectAddress "\"eNodeB2%x2ppp26\""
param *.eNodeB35.x2App[20].client.connectAddress "\"eNodeB30%x2ppp20\""
param *.eNodeB35.x2App[21].client.connectAddress "\"eNodeB31%x2ppp23\""
param *.eNodeB35.x2App[22].client.connectAddress "\"eNodeB32%x2ppp19\""
param *.eNodeB35.x2App[23].client.connectAddress "\"eNodeB34%x2ppp25\""
param *.eNodeB35.x2App[24].client.connectAddress "\"eNodeB63%x2ppp21\""
param *.eNodeB35.x2App[25].client.connectAddress "\"eNodeB37%x2ppp16\""
param *.eNodeB35.x2App[26].client.connectAddress "\"eNodeB40%x2ppp15\""
param *.eNodeB35.x2App[27].client.connectAddress "\"eNodeB41%x2ppp18\""
param *.eNodeB35.x2App[28].client.connectAddress "\"eNodeB43%x2ppp12\""
param *.eNodeB35.x2App[29].client.connectAddress "\"eNodeB45%x2ppp20\""
param *.eNodeB35.x2App[2].client.connectAddress "\"eNodeB5%x2ppp27\""
param *.eNodeB35.x2App[30].client.connectAddress "\"eNodeB46%x2ppp21\""
param *.eNodeB35.x2App[31].client.connectAddress "\"eNodeB47%x2ppp23\""
param *.eNodeB35.x2App[32].client.connectAddress "\"eNodeB48%x2ppp20\""
param *.eNodeB35.x2App[33].client.connectAddress "\"eNodeB50%x2ppp15\""
param *.eNodeB35.x2App[34].client.connectAddress "\"eNodeB51%x2ppp18\""
param *.eNodeB35.x2App[35].client.connectAddress "\"eNodeB52%x2ppp25\""
param *.eNodeB35.x2App[36].client.connectAddress "\"eNodeB53%x2ppp26\""
param *.eNodeB35.x2App[37].client.connectAddress "\"eNodeB54%x2ppp16\""
param *.eNodeB35.x2App[38].client.connectAddress "\"eNodeB57%x2ppp19\""
param *.eNodeB35.x2App[39].client.connectAddress "\"eNodeB58%x2ppp22\""
param *.eNodeB35.x2App[3].client.connectAddress "\"eNodeB6%x2ppp18\""
param *.eNodeB35.x2App[40].client.connectAddress "\"eNodeB59%x2ppp12\""
param *.eNodeB35.x2App[41].client.connectAddress "\"eNodeB60%x2ppp15\""
param *.eNodeB35.x2App[42].client.connectAddress "\"eNodeB64%x2ppp17\""
param *.eNodeB35.x2App[43].client.connectAddress "\"eNodeB65%x2ppp14\""
param *.eNodeB35.x2App[44].client.connectAddress "\"eNodeB66%x2ppp20\""
param *.eNodeB35.x2App[4].client.connectAddress "\"eNodeB7%x2ppp21\""
param *.eNodeB35.x2App[5].client.connectAddress "\"eNodeB8%x2ppp21\""
param *.eNodeB35.x2App[6].client.connectAddress "\"eNodeB9%x2ppp25\""
param *.eNodeB35.x2App[7].client.connectAddress "\"eNodeB10%x2ppp20\""
param *.eNodeB35.x2App[8].client.connectAddress "\"eNodeB11%x2ppp11\""
param *.eNodeB35.x2App[9].client.connectAddress "\"eNodeB13%x2ppp19\""
param *.eNodeB36.numX2Apps 13
param *.eNodeB36.x2App[0].client.connectAddress "\"eNodeB2%x2ppp27\""
param *.eNodeB36.x2App[10].client.connectAddress "\"eNodeB46%x2ppp22\""
param *.eNodeB36.x2App[11].client.connectAddress "\"eNodeB55%x2ppp16\""
param *.eNodeB36.x2App[12].client.connectAddress "\"eNodeB62%x2ppp15\""
param *.eNodeB36.x2App[1].client.connectAddress "\"eNodeB3%x2ppp17\""
param *.eNodeB36.x2App[2].client.connectAddress "\"eNodeB7%x2ppp22\""
param *.eNodeB36.x2App[3].client.connectAddress "\"eNodeB12%x2ppp12\""
param *.eNodeB36.x2App[4].client.connectAddress "\"eNodeB21%x2ppp2\""
param *.eNodeB36.x2App[5].client.connectAddress "\"eNodeB23%x2ppp10\""
param *.eNodeB36.x2App[6].client.connectAddress "\"eNodeB30%x2ppp21\""
param *.eNodeB36.x2App[7].client.connectAddress "\"eNodeB32%x2ppp20\""
param *.eNodeB36.x2App[8].client.connectAddress "\"eNodeB38%x2ppp13\""
param *.eNodeB36.x2App[9].client.connectAddress "\"eNodeB44%x2ppp15\""
param *.eNodeB37.numX2Apps 32
param *.eNodeB37.x2App[0].client.connectAddress "\"eNodeB1%x2ppp15\""
param *.eNodeB37.x2App[10].client.connectAddress "\"eNodeB22%x2ppp14\""
param *.eNodeB37.x2App[11].client.connectAddress "\"eNodeB25%x2ppp24\""
param *.eNodeB37.x2App[12].client.connectAddress "\"eNodeB27%x2ppp24\""
param *.eNodeB37.x2App[13].client.connectAddress "\"eNodeB29%x2ppp22\""
param *.eNodeB37.x2App[14].client.connectAddress "\"eNodeB33%x2ppp15\""
param *.eNodeB37.x2App[15].client.connectAddress "\"eNodeB34%x2ppp26\""
param *.eNodeB37.x2App[16].client.connectAddress "\"eNodeB35%x2ppp24\""
param *.eNodeB37.x2App[17].client.connectAddress "\"eNodeB42%x2ppp13\""
param *.eNodeB37.x2App[18].client.connectAddress "\"eNodeB45%x2ppp21\""
param *.eNodeB37.x2App[19].client.connectAddress "\"eNodeB40%x2ppp16\""
param *.eNodeB37.x2App[1].client.connectAddress "\"eNodeB2%x2ppp28\""
param *.eNodeB37.x2App[20].client.connectAddress "\"eNodeB41%x2ppp19\""
param *.eNodeB37.x2App[21].client.connectAddress "\"eNodeB43%x2ppp13\""
param *.eNodeB37.x2App[22].client.connectAddress "\"eNodeB48%x2ppp21\""
param *.eNodeB37.x2App[23].client.connectAddress "\"eNodeB49%x2ppp16\""
param *.eNodeB37.x2App[24].client.connectAddress "\"eNodeB50%x2ppp16\""
param *.eNodeB37.x2App[25].client.connectAddress "\"eNodeB51%x2ppp19\""
param *.eNodeB37.x2App[26].client.connectAddress "\"eNodeB52%x2ppp26\""
param *.eNodeB37.x2App[27].client.connectAddress "\"eNodeB53%x2ppp27\""
param *.eNodeB37.x2App[28].client.connectAddress "\"eNodeB54%x2ppp17\""
param *.eNodeB37.x2App[29].client.connectAddress "\"eNodeB56%x2ppp10\""
param *.eNodeB37.x2App[2].client.connectAddress "\"eNodeB5%x2ppp28\""
param *.eNodeB37.x2App[30].client.connectAddress "\"eNodeB58%x2ppp23\""
param *.eNodeB37.x2App[31].client.connectAddress "\"eNodeB66%x2ppp21\""
param *.eNodeB37.x2App[3].client.connectAddress "\"eNodeB6%x2ppp19\""
param *.eNodeB37.x2App[4].client.connectAddress "\"eNodeB9%x2ppp26\""
param *.eNodeB37.x2App[5].client.connectAddress "\"eNodeB11%x2ppp12\""
param *.eNodeB37.x2App[6].client.connectAddress "\"eNodeB14%x2ppp19\""
param *.eNodeB37.x2App[7].client.connectAddress "\"eNodeB17%x2ppp15\""
param *.eNodeB37.x2App[8].client.connectAddress "\"eNodeB18%x2ppp20\""
param *.eNodeB37.x2App[9].client.connectAddress "\"eNodeB19%x2ppp22\""
param *.eNodeB38.numX2Apps 20
param *.eNodeB38.x2App[0].client.connectAddress "\"eNodeB2%x2ppp29\""
param *.eNodeB38.x2App[10].client.connectAddress "\"eNodeB25%x2ppp25\""
param *.eNodeB38.x2App[11].client.connectAddress "\"eNodeB30%x2ppp22\""
param *.eNodeB38.x2App[12].client.connectAddress "\"eNodeB32%x2ppp21\""
param *.eNodeB38.x2App[13].client.connectAddress "\"eNodeB36%x2ppp8\""
param *.eNodeB38.x2App[14].client.connectAddress "\"eNodeB44%x2ppp16\""
param *.eNodeB38.x2App[15].client.connectAddress "\"eNodeB46%x2ppp23\""
param *.eNodeB38.x2App[16].client.connectAddress "\"eNodeB47%x2ppp24\""
param *.eNodeB38.x2App[17].client.connectAddress "\"eNodeB55%x2ppp17\""
param *.eNodeB38.x2App[18].client.connectAddress "\"eNodeB62%x2ppp16\""
param *.eNodeB38.x2App[19].client.connectAddress "\"eNodeB64%x2ppp18\""
param *.eNodeB38.x2App[1].client.connectAddress "\"eNodeB3%x2ppp18\""
param *.eNodeB38.x2App[2].client.connectAddress "\"eNodeB5%x2ppp29\""
param *.eNodeB38.x2App[3].client.connectAddress "\"eNodeB7%x2ppp23\""
param *.eNodeB38.x2App[4].client.connectAddress "\"eNodeB8%x2ppp22\""
param *.eNodeB38.x2App[5].client.connectAddress "\"eNodeB10%x2ppp21\""
param *.eNodeB38.x2App[6].client.connectAddress "\"eNodeB12%x2ppp13\""
param *.eNodeB38.x2App[7].client.connectAddress "\"eNodeB13%x2ppp20\""
param *.eNodeB38.x2App[8].client.connectAddress "\"eNodeB21%x2ppp3\""
param *.eNodeB38.x2App[9].client.connectAddress "\"eNodeB23%x2ppp11\""
param *.eNodeB39.numX2Apps 15
param *.eNodeB39.x2App[0].client.connectAddress "\"eNodeB10%x2ppp22\""
param *.eNodeB39.x2App[10].client.connectAddress "\"eNodeB60%x2ppp16\""
param *.eNodeB39.x2App[11].client.connectAddress "\"eNodeB61%x2ppp5\""
param *.eNodeB39.x2App[12].client.connectAddress "\"eNodeB63%x2ppp22\""
param *.eNodeB39.x2App[13].client.connectAddress "\"eNodeB64%x2ppp19\""
param *.eNodeB39.x2App[14].client.connectAddress "\"eNodeB65%x2ppp15\""
param *.eNodeB39.x2App[1].client.connectAddress "\"eNodeB15%x2ppp16\""
param *.eNodeB39.x2App[2].client.connectAddress "\"eNodeB16%x2ppp4\""
param *.eNodeB39.x2App[3].client.connectAddress "\"eNodeB18%x2ppp21\""
param *.eNodeB39.x2App[4].client.connectAddress "\"eNodeB24%x2ppp12\""
param *.eNodeB39.x2App[5].client.connectAddress "\"eNodeB26%x2ppp4\""
param *.eNodeB39.x2App[6].client.connectAddress "\"eNodeB28%x2ppp15\""
param *.eNodeB39.x2App[7].client.connectAddress "\"eNodeB59%x2ppp13\""
param *.eNodeB39.x2App[8].client.connectAddress "\"eNodeB48%x2ppp22\""
param *.eNodeB39.x2App[9].client.connectAddress "\"eNodeB57%x2ppp20\""
param *.eNodeB4.numX2Apps 21
param *.eNodeB4.x2App[0].client.connectAddress "\"eNodeB2%x2ppp1\""
param *.eNodeB4.x2App[10].client.connectAddress "\"eNodeB30%x2ppp2\""
param *.eNodeB4.x2App[11].client.connectAddress "\"eNodeB32%x2ppp2\""
param *.eNodeB4.x2App[12].client.connectAddress "\"eNodeB33%x2ppp2\""
param *.eNodeB4.x2App[13].client.connectAddress "\"eNodeB34%x2ppp3\""
param *.eNodeB4.x2App[14].client.connectAddress "\"eNodeB46%x2ppp2\""
param *.eNodeB4.x2App[15].client.connectAddress "\"eNodeB51%x2ppp3\""
param *.eNodeB4.x2App[16].client.connectAddress "\"eNodeB52%x2ppp3\""
param *.eNodeB4.x2App[17].client.connectAddress "\"eNodeB53%x2ppp3\""
param *.eNodeB4.x2App[18].client.connectAddress "\"eNodeB55%x2ppp2\""
param *.eNodeB4.x2App[19].client.connectAddress "\"eNodeB56%x2ppp0\""
param *.eNodeB4.x2App[1].client.connectAddress "\"eNodeB3%x2ppp1\""
param *.eNodeB4.x2App[20].client.connectAddress "\"eNodeB62%x2ppp2\""
param *.eNodeB4.x2App[2].client.connectAddress "\"eNodeB17%x2ppp2\""
param *.eNodeB4.x2App[3].client.connectAddress "\"eNodeB20%x2ppp2\""
param *.eNodeB4.x2App[4].client.connectAddress "\"eNodeB49%x2ppp2\""
param *.eNodeB4.x2App[5].client.connectAddress "\"eNodeB5%x2ppp3\""
param *.eNodeB4.x2App[6].client.connectAddress "\"eNodeB6%x2ppp2\""
param *.eNodeB4.x2App[7].client.connectAddress "\"eNodeB12%x2ppp2\""
param *.eNodeB4.x2App[8].client.connectAddress "\"eNodeB25%x2ppp3\""
param *.eNodeB4.x2App[9].client.connectAddress "\"eNodeB29%x2ppp3\""
param *.eNodeB40.numX2Apps 32
param *.eNodeB40.x2App[0].client.connectAddress "\"eNodeB1%x2ppp16\""
param *.eNodeB40.x2App[10].client.connectAddress "\"eNodeB19%x2ppp23\""
param *.eNodeB40.x2App[11].client.connectAddress "\"eNodeB22%x2ppp15\""
param *.eNodeB40.x2App[12].client.connectAddress "\"eNodeB27%x2ppp25\""
param *.eNodeB40.x2App[13].client.connectAddress "\"eNodeB31%x2ppp24\""
param *.eNodeB40.x2App[14].client.connectAddress "\"eNodeB34%x2ppp27\""
param *.eNodeB40.x2App[15].client.connectAddress "\"eNodeB35%x2ppp25\""
param *.eNodeB40.x2App[16].client.connectAddress "\"eNodeB37%x2ppp17\""
param *.eNodeB40.x2App[17].client.connectAddress "\"eNodeB54%x2ppp18\""
param *.eNodeB40.x2App[18].client.connectAddress "\"eNodeB41%x2ppp20\""
param *.eNodeB40.x2App[19].client.connectAddress "\"eNodeB42%x2ppp14\""
param *.eNodeB40.x2App[1].client.connectAddress "\"eNodeB5%x2ppp30\""
param *.eNodeB40.x2App[20].client.connectAddress "\"eNodeB43%x2ppp14\""
param *.eNodeB40.x2App[21].client.connectAddress "\"eNodeB45%x2ppp22\""
param *.eNodeB40.x2App[22].client.connectAddress "\"eNodeB47%x2ppp25\""
param *.eNodeB40.x2App[23].client.connectAddress "\"eNodeB48%x2ppp23\""
param *.eNodeB40.x2App[24].client.connectAddress "\"eNodeB50%x2ppp17\""
param *.eNodeB40.x2App[25].client.connectAddress "\"eNodeB53%x2ppp28\""
param *.eNodeB40.x2App[26].client.connectAddress "\"eNodeB57%x2ppp21\""
param *.eNodeB40.x2App[27].client.connectAddress "\"eNodeB58%x2ppp24\""
[...]
scalar ErlangenLTE.eNodeB54.x2App[12].client 	ums 	1452
scalar ErlangenLTE.eNodeB54.x2App[13].client 	ums 	1452
scalar ErlangenLTE.eNodeB54.x2App[14].client 	ums 	1452
scalar ErlangenLTE.eNodeB54.x2App[15].client 	ums 	1452
scalar ErlangenLTE.eNodeB54.x2App[16].client 	ums 	1452
scalar ErlangenLTE.eNodeB54.x2App[17].client 	ums 	1452
scalar ErlangenLTE.eNodeB54.x2App[18].client 	ums 	1452
scalar ErlangenLTE.eNodeB54.x2App[19].client 	ums 	1452
scalar ErlangenLTE.eNodeB54.x2App[20].client 	ums 	1452
scalar ErlangenLTE.eNodeB54.x2App[21].client 	ums 	1452
scalar ErlangenLTE.eNodeB54.x2App[22].client 	ums 	1452
scalar ErlangenLTE.eNodeB54.x2App[23].client 	ums 	1452
scalar ErlangenLTE.eNodeB54.x2App[24].client 	ums 	1452
scalar ErlangenLTE.eNodeB54.x2App[25].client 	ums 	1452
scalar ErlangenLTE.eNodeB54.x2App[26].client 	ums 	1452
scalar ErlangenLTE.eNodeB54.x2App[27].client 	ums 	1452
scalar ErlangenLTE.eNodeB54.x2App[28].client 	ums 	1452
scalar ErlangenLTE.eNodeB54.x2App[29].client 	ums 	1452
scalar ErlangenLTE.eNodeB54.x2App[30].client 	ums 	1452
scalar ErlangenLTE.eNodeB54.x2App[31].client 	ums 	1452
scalar ErlangenLTE.eNodeB55.x2App[0].client 	ums 	1452
scalar ErlangenLTE.eNodeB55.x2App[1].client 	ums 	1452
scalar ErlangenLTE.eNodeB55.x2App[2].client 	ums 	1452
scalar ErlangenLTE.eNodeB55.x2App[3].client 	ums 	1452
scalar ErlangenLTE.eNodeB55.x2App[4].client 	ums 	1452
scalar ErlangenLTE.eNodeB55.x2App[5].client 	ums 	1452
scalar ErlangenLTE.eNodeB55.x2App[6].client 	ums 	1452
scalar ErlangenLTE.eNodeB55.x2App[7].client 	ums 	1452
scalar ErlangenLTE.eNodeB55.x2App[8].client 	ums 	1452
scalar ErlangenLTE.eNodeB55.x2App[9].client 	ums 	1452
scalar ErlangenLTE.eNodeB55.x2App[10].client 	ums 	1452
scalar ErlangenLTE.eNodeB55.x2App[11].client 	ums 	1452
scalar ErlangenLTE.eNodeB55.x2App[12].client 	ums 	1452
scalar ErlangenLTE.eNodeB55.x2App[13].client 	ums 	1452
scalar ErlangenLTE.eNodeB55.x2App[14].client 	ums 	1452
scalar ErlangenLTE.eNodeB55.x2App[15].client 	ums 	1452
scalar ErlangenLTE.eNodeB55.x2App[16].client 	ums 	1452
scalar ErlangenLTE.eNodeB55.x2App[17].client 	ums 	1452
scalar ErlangenLTE.eNodeB55.x2App[18].client 	ums 	1452
scalar ErlangenLTE.eNodeB55.x2App[19].client 	ums 	1452
scalar ErlangenLTE.eNodeB55.x2App[20].client 	ums 	1452
scalar ErlangenLTE.eNodeB55.x2App[21].client 	ums 	1452
scalar ErlangenLTE.eNodeB55.x2App[22].client 	ums 	1452
scalar ErlangenLTE.eNodeB55.x2App[23].client 	ums 	1452
scalar ErlangenLTE.eNodeB55.x2App[24].client 	ums 	1452
scalar ErlangenLTE.eNodeB55.x2App[25].client 	ums 	1452
scalar ErlangenLTE.eNodeB55.x2App[26].client 	ums 	1452
scalar ErlangenLTE.eNodeB56.x2App[0].client 	ums 	1452
scalar ErlangenLTE.eNodeB56.x2App[1].client 	ums 	1452
scalar ErlangenLTE.eNodeB56.x2App[2].client 	ums 	1452
scalar ErlangenLTE.eNodeB56.x2App[3].client 	ums 	1452
scalar ErlangenLTE.eNodeB56.x2App[4].client 	ums 	1452
scalar ErlangenLTE.eNodeB56.x2App[5].client 	ums 	1452
scalar ErlangenLTE.eNodeB56.x2App[6].client 	ums 	1452
scalar ErlangenLTE.eNodeB56.x2App[7].client 	ums 	1452
scalar ErlangenLTE.eNodeB56.x2App[8].client 	ums 	1452
scalar ErlangenLTE.eNodeB56.x2App[9].client 	ums 	1452
scalar ErlangenLTE.eNodeB56.x2App[10].client 	ums 	1452
scalar ErlangenLTE.eNodeB56.x2App[11].client 	ums 	1452
scalar ErlangenLTE.eNodeB56.x2App[12].client 	ums 	1452
scalar ErlangenLTE.eNodeB56.x2App[13].client 	ums 	1452
scalar ErlangenLTE.eNodeB56.x2App[14].client 	ums 	1452
scalar ErlangenLTE.eNodeB56.x2App[15].client 	ums 	1452
scalar ErlangenLTE.eNodeB56.x2App[16].client 	ums 	1452
scalar ErlangenLTE.eNodeB56.x2App[17].client 	ums 	1452
scalar ErlangenLTE.eNodeB56.x2App[18].client 	ums 	1452
scalar ErlangenLTE.eNodeB56.x2App[19].client 	ums 	1452
scalar ErlangenLTE.eNodeB57.x2App[0].client 	ums 	1452
scalar ErlangenLTE.eNodeB57.x2App[1].client 	ums 	1452
scalar ErlangenLTE.eNodeB57.x2App[2].client 	ums 	1452
scalar ErlangenLTE.eNodeB57.x2App[3].client 	ums 	1452
scalar ErlangenLTE.eNodeB57.x2App[4].client 	ums 	1452
scalar ErlangenLTE.eNodeB57.x2App[5].client 	ums 	1452
scalar ErlangenLTE.eNodeB57.x2App[6].client 	ums 	1452
scalar ErlangenLTE.eNodeB57.x2App[7].client 	ums 	1452
scalar ErlangenLTE.eNodeB57.x2App[8].client 	ums 	1452
scalar ErlangenLTE.eNodeB57.x2App[9].client 	ums 	1452
scalar ErlangenLTE.eNodeB57.x2App[10].client 	ums 	1452
scalar ErlangenLTE.eNodeB57.x2App[11].client 	ums 	1452
scalar ErlangenLTE.eNodeB57.x2App[12].client 	ums 	1452
scalar ErlangenLTE.eNodeB57.x2App[13].client 	ums 	1452
scalar ErlangenLTE.eNodeB57.x2App[14].client 	ums 	1452
scalar ErlangenLTE.eNodeB57.x2App[15].client 	ums 	1452
scalar ErlangenLTE.eNodeB57.x2App[16].client 	ums 	1452
scalar ErlangenLTE.eNodeB57.x2App[17].client 	ums 	1452
scalar ErlangenLTE.eNodeB57.x2App[18].client 	ums 	1452
scalar ErlangenLTE.eNodeB57.x2App[19].client 	ums 	1452
scalar ErlangenLTE.eNodeB57.x2App[20].client 	ums 	1452
scalar ErlangenLTE.eNodeB57.x2App[21].client 	ums 	1452
scalar ErlangenLTE.eNodeB57.x2App[22].client 	ums 	1452
scalar ErlangenLTE.eNodeB57.x2App[23].client 	ums 	1452
scalar ErlangenLTE.eNodeB57.x2App[24].client 	ums 	1452
scalar ErlangenLTE.eNodeB57.x2App[25].client 	ums 	1452
scalar ErlangenLTE.eNodeB57.x2App[26].client 	ums 	1452
scalar ErlangenLTE.eNodeB57.x2App[27].client 	ums 	1452
scalar ErlangenLTE.eNodeB57.x2App[28].client 	ums 	1452
scalar ErlangenLTE.eNodeB57.x2App[29].client 	ums 	1452
scalar ErlangenLTE.eNodeB57.x2App[30].client 	ums 	1452
scalar ErlangenLTE.eNodeB57.x2App[31].client 	ums 	1452
scalar ErlangenLTE.eNodeB57.x2App[32].client 	ums 	1452
scalar ErlangenLTE.eNodeB57.x2App[33].client 	ums 	1452
scalar ErlangenLTE.eNodeB57.x2App[34].client 	ums 	1452
scalar ErlangenLTE.eNodeB58.x2App[0].client 	ums 	1452
scalar ErlangenLTE.eNodeB58.x2App[1].client 	ums 	1452
scalar ErlangenLTE.eNodeB58.x2App[2].client 	ums 	1452
scalar ErlangenLTE.eNodeB58.x2App[3].client 	ums 	1452
scalar ErlangenLTE.eNodeB58.x2App[4].client 	ums 	1452
scalar ErlangenLTE.eNodeB58.x2App[5].client 	ums 	1452
scalar ErlangenLTE.eNodeB58.x2App[6].client 	ums 	1452
scalar ErlangenLTE.eNodeB58.x2App[7].client 	ums 	1452
scalar ErlangenLTE.eNodeB58.x2App[8].client 	ums 	1452
scalar ErlangenLTE.eNodeB58.x2App[9].client 	ums 	1452
scalar ErlangenLTE.eNodeB58.x2App[10].client 	ums 	1452
scalar ErlangenLTE.eNodeB58.x2App[11].client 	ums 	1452
scalar ErlangenLTE.eNodeB58.x2App[12].client 	ums 	1452
scalar ErlangenLTE.eNodeB58.x2App[13].client 	ums 	1452
scalar ErlangenLTE.eNodeB58.x2App[14].client 	ums 	1452
scalar ErlangenLTE.eNodeB58.x2App[15].client 	ums 	1452
scalar ErlangenLTE.eNodeB58.x2App[16].client 	ums 	1452
scalar ErlangenLTE.eNodeB58.x2App[17].client 	ums 	1452
scalar ErlangenLTE.eNodeB58.x2App[18].client 	ums 	1452
scalar ErlangenLTE.eNodeB58.x2App[19].client 	ums 	1452
scalar ErlangenLTE.eNodeB58.x2App[20].client 	ums 	1452
scalar ErlangenLTE.eNodeB58.x2App[21].client 	ums 	1452
scalar ErlangenLTE.eNodeB58.x2App[22].client 	ums 	1452
scalar ErlangenLTE.eNodeB58.x2App[23].client 	ums 	1452
scalar ErlangenLTE.eNodeB58.x2App[24].client 	ums 	1452
scalar ErlangenLTE.eNodeB58.x2App[25].client 	ums 	1452
scalar ErlangenLTE.eNodeB58.x2App[26].client 	ums 	1452
scalar ErlangenLTE.eNodeB58.x2App[27].client 	ums 	1452
scalar ErlangenLTE.eNodeB58.x2App[28].client 	ums 	1452
scalar ErlangenLTE.eNodeB58.x2App[29].client 	ums 	1452
scalar ErlangenLTE.eNodeB58.x2App[30].client 	ums 	1452
scalar ErlangenLTE.eNodeB58.x2App[31].client 	ums 	1452
scalar ErlangenLTE.eNodeB58.x2App[32].client 	ums 	1452
scalar ErlangenLTE.eNodeB58.x2App[33].client 	ums 	1452
scalar ErlangenLTE.eNodeB58.x2App[34].client 	ums 	1452
scalar ErlangenLTE.eNodeB58.x2App[35].client 	ums 	1452
scalar ErlangenLTE.eNodeB58.x2App[36].client 	ums 	1452
scalar ErlangenLTE.eNodeB58.x2App[37].client 	ums 	1452
scalar ErlangenLTE.eNodeB58.x2App[38].client 	ums 	1452
scalar ErlangenLTE.eNodeB58.x2App[39].client 	ums 	1452
scalar ErlangenLTE.eNodeB58.x2App[40].client 	ums 	1452
scalar ErlangenLTE.eNodeB58.x2App[41].client 	ums 	1452
scalar ErlangenLTE.eNodeB59.x2App[0].client 	ums 	1452
scalar ErlangenLTE.eNodeB59.x2App[1].client 	ums 	1452
scalar ErlangenLTE.eNodeB59.x2App[2].client 	ums 	1452
scalar ErlangenLTE.eNodeB59.x2App[3].client 	ums 	1452
scalar ErlangenLTE.eNodeB59.x2App[4].client 	ums 	1452
scalar ErlangenLTE.eNodeB59.x2App[5].client 	ums 	1452
scalar ErlangenLTE.eNodeB59.x2App[6].client 	ums 	1452
scalar ErlangenLTE.eNodeB59.x2App[7].client 	ums 	1452
scalar ErlangenLTE.eNodeB59.x2App[8].client 	ums 	1452
scalar ErlangenLTE.eNodeB59.x2App[9].client 	ums 	1452
scalar ErlangenLTE.eNodeB59.x2App[10].client 	ums 	1452
scalar ErlangenLTE.eNodeB59.x2App[11].client 	ums 	1452
scalar ErlangenLTE.eNodeB59.x2App[12].client 	ums 	1452
scalar ErlangenLTE.eNodeB59.x2App[13].client 	ums 	1452
scalar ErlangenLTE.eNodeB59.x2App[14].client 	ums 	1452
scalar ErlangenLTE.eNodeB59.x2App[15].client 	ums 	1452
scalar ErlangenLTE.eNodeB59.x2App[16].client 	ums 	1452
scalar ErlangenLTE.eNodeB59.x2App[17].client 	ums 	1452
scalar ErlangenLTE.eNodeB59.x2App[18].client 	ums 	1452
scalar ErlangenLTE.eNodeB59.x2App[19].client 	ums 	1452
scalar ErlangenLTE.eNodeB59.x2App[20].client 	ums 	1452
scalar ErlangenLTE.eNodeB59.x2App[21].client 	ums 	1452
scalar ErlangenLTE.eNodeB60.x2App[0].client 	ums 	1452
scalar ErlangenLTE.eNodeB60.x2App[1].client 	ums 	1452
scalar ErlangenLTE.eNodeB60.x2App[2].client 	ums 	1452
scalar ErlangenLTE.eNodeB60.x2App[3].client 	ums 	1452
scalar ErlangenLTE.eNodeB60.x2App[4].client 	ums 	1452
scalar ErlangenLTE.eNodeB60.x2App[5].client 	ums 	1452
scalar ErlangenLTE.eNodeB60.x2App[6].client 	ums 	1452
scalar ErlangenLTE.eNodeB60.x2App[7].client 	ums 	1452
scalar ErlangenLTE.eNodeB60.x2App[8].client 	ums 	1452
scalar ErlangenLTE.eNodeB60.x2App[9].client 	ums 	1452
scalar ErlangenLTE.eNodeB60.x2App[10].client 	ums 	1452
scalar ErlangenLTE.eNodeB60.x2App[11].client 	ums 	1452
scalar ErlangenLTE.eNodeB60.x2App[12].client 	ums 	1452
scalar ErlangenLTE.eNodeB60.x2App[13].client 	ums 	1452
scalar ErlangenLTE.eNodeB60.x2App[14].client 	ums 	1452
scalar ErlangenLTE.eNodeB60.x2App[15].client 	ums 	1452
scalar ErlangenLTE.eNodeB60.x2App[16].client 	ums 	1452
scalar ErlangenLTE.eNodeB60.x2App[17].client 	ums 	1452
scalar ErlangenLTE.eNodeB60.x2App[18].client 	ums 	1452
scalar ErlangenLTE.eNodeB60.x2App[19].client 	ums 	1452
scalar ErlangenLTE.eNodeB60.x2App[20].client 	ums 	1452
scalar ErlangenLTE.eNodeB60.x2App[21].client 	ums 	1452
scalar ErlangenLTE.eNodeB60.x2App[22].client 	ums 	1452
scalar ErlangenLTE.eNodeB60.x2App[23].client 	ums 	1452
scalar ErlangenLTE.eNodeB60.x2App[24].client 	ums 	1452
scalar ErlangenLTE.eNodeB60.x2App[25].client 	ums 	1452
scalar ErlangenLTE.eNodeB60.x2App[26].client 	ums 	1452
scalar ErlangenLTE.eNodeB61.x2App[0].client 	ums 	1452
scalar ErlangenLTE.eNodeB61.x2App[1].client 	ums 	1452
scalar ErlangenLTE.eNodeB61.x2App[2].client 	ums 	1452
scalar ErlangenLTE.eNodeB61.x2App[3].client 	ums 	1452
scalar ErlangenLTE.eNodeB61.x2App[4].client 	ums 	1452
scalar ErlangenLTE.eNodeB61.x2App[5].client 	ums 	1452
scalar ErlangenLTE.eNodeB61.x2App[6].client 	ums 	1452
scalar ErlangenLTE.eNodeB61.x2App[7].client 	ums 	1452
scalar ErlangenLTE.eNodeB61.x2App[8].client 	ums 	1452
scalar ErlangenLTE.eNodeB61.x2App[9].client 	ums 	1452
scalar ErlangenLTE.eNodeB62.x2App[0].client 	ums 	1452
scalar ErlangenLTE.eNodeB62.x2App[1].client 	ums 	1452
scalar ErlangenLTE.eNodeB62.x2App[2].client 	ums 	1452
scalar ErlangenLTE.eNodeB62.x2App[3].client 	ums 	1452
scalar ErlangenLTE.eNodeB62.x2App[4].client 	ums 	1452
scalar ErlangenLTE.eNodeB62.x2App[5].client 	ums 	1452
scalar ErlangenLTE.eNodeB62.x2App[6].client 	ums 	1452
scalar ErlangenLTE.eNodeB62.x2App[7].client 	ums 	1452
scalar ErlangenLTE.eNodeB62.x2App[8].client 	ums 	1452
scalar ErlangenLTE.eNodeB62.x2App[9].client 	ums 	1452
scalar ErlangenLTE.eNodeB62.x2App[10].client 	ums 	1452
scalar ErlangenLTE.eNodeB62.x2App[11].client 	ums 	1452
scalar ErlangenLTE.eNodeB62.x2App[12].client 	ums 	1452
scalar ErlangenLTE.eNodeB62.x2App[13].client 	ums 	1452
scalar ErlangenLTE.eNodeB62.x2App[14].client 	ums 	1452
scalar ErlangenLTE.eNodeB62.x2App[15].client 	ums 	1452
scalar ErlangenLTE.eNodeB62.x2App[16].client 	ums 	1452
scalar ErlangenLTE.eNodeB62.x2App[17].client 	ums 	1452
scalar ErlangenLTE.eNodeB62.x2App[18].client 	ums 	1452
scalar ErlangenLTE.eNodeB62.x2App[19].client 	ums 	1452
scalar ErlangenLTE.eNodeB62.x2App[20].client 	ums 	1452
scalar ErlangenLTE.eNodeB62.x2App[21].client 	ums 	1452
scalar ErlangenLTE.eNodeB62.x2App[22].client 	ums 	1452
scalar ErlangenLTE.eNodeB62.x2App[23].client 	ums 	1452
scalar ErlangenLTE.eNodeB63.x2App[0].client 	ums 	1452
scalar ErlangenLTE.eNodeB63.x2App[1].client 	ums 	1452
scalar ErlangenLTE.eNodeB63.x2App[2].client 	ums 	1452
scalar ErlangenLTE.eNodeB63.x2App[3].client 	ums 	1452
scalar ErlangenLTE.eNodeB63.x2App[4].client 	ums 	1452
scalar ErlangenLTE.eNodeB63.x2App[5].client 	ums 	1452
scalar ErlangenLTE.eNodeB63.x2App[6].client 	ums 	1452
scalar ErlangenLTE.eNodeB63.x2App[7].client 	ums 	1452
scalar ErlangenLTE.eNodeB63.x2App[8].client 	ums 	1452
scalar ErlangenLTE.eNodeB63.x2App[9].client 	ums 	1452
scalar ErlangenLTE.eNodeB63.x2App[10].client 	ums 	1452
scalar ErlangenLTE.eNodeB63.x2App[11].client 	ums 	1452
scalar ErlangenLTE.eNodeB63.x2App[12].client 	ums 	1452
scalar ErlangenLTE.eNodeB63.x2App[13].client 	ums 	1452
scalar ErlangenLTE.eNodeB63.x2App[14].client 	ums 	1452
scalar ErlangenLTE.eNodeB63.x2App[15].client 	ums 	1452
scalar ErlangenLTE.eNodeB63.x2App[16].client 	ums 	1452
scalar ErlangenLTE.eNodeB63.x2App[17].client 	ums 	1452
scalar ErlangenLTE.eNodeB63.x2App[18].client 	ums 	1452
scalar ErlangenLTE.eNodeB63.x2App[19].client 	ums 	1452
scalar ErlangenLTE.eNodeB63.x2App[20].client 	ums 	1452
scalar ErlangenLTE.eNodeB63.x2App[21].client 	ums 	1452
scalar ErlangenLTE.eNodeB63.x2App[22].client 	ums 	1452
scalar ErlangenLTE.eNodeB63.x2App[23].client 	ums 	1452
scalar ErlangenLTE.eNodeB63.x2App[24].client 	ums 	1452
scalar ErlangenLTE.eNodeB63.x2App[25].client 	ums 	1452
scalar ErlangenLTE.eNodeB63.x2App[26].client 	ums 	1452
scalar ErlangenLTE.eNodeB63.x2App[27].client 	ums 	1452
scalar ErlangenLTE.eNodeB63.x2App[28].client 	ums 	1452
scalar ErlangenLTE.eNodeB63.x2App[29].client 	ums 	1452
scalar ErlangenLTE.eNodeB63.x2App[30].client 	ums 	1452
scalar ErlangenLTE.eNodeB63.x2App[31].client 	ums 	1452
scalar ErlangenLTE.eNodeB63.x2App[32].client 	ums 	1452
scalar ErlangenLTE.eNodeB63.x2App[33].client 	ums 	1452
scalar ErlangenLTE.eNodeB63.x2App[34].client 	ums 	1452
scalar ErlangenLTE.eNodeB63.x2App[35].client 	ums 	1452
scalar ErlangenLTE.eNodeB63.x2App[36].client 	ums 	1452
scalar ErlangenLTE.eNodeB63.x2App[37].client 	ums 	1452
scalar ErlangenLTE.eNodeB63.x2App[38].client 	ums 	1452
scalar ErlangenLTE.eNodeB63.x2App[39].client 	ums 	1452
scalar ErlangenLTE.eNodeB64.x2App[0].client 	ums 	1452
scalar ErlangenLTE.eNodeB64.x2App[1].client 	ums 	1452
scalar ErlangenLTE.eNodeB64.x2App[2].client 	ums 	1452
scalar ErlangenLTE.eNodeB64.x2App[3].client 	ums 	1452
scalar ErlangenLTE.eNodeB64.x2App[4].client 	ums 	1452
scalar ErlangenLTE.eNodeB64.x2App[5].client 	ums 	1452
scalar ErlangenLTE.eNodeB64.x2App[6].client 	ums 	1452
scalar ErlangenLTE.eNodeB64.x2App[7].client 	ums 	1452
scalar ErlangenLTE.eNodeB64.x2App[8].client 	ums 	1452
scalar ErlangenLTE.eNodeB64.x2App[9].client 	ums 	1452
scalar ErlangenLTE.eNodeB64.x2App[10].client 	ums 	1452
scalar ErlangenLTE.eNodeB64.x2App[11].client 	ums 	1452
scalar ErlangenLTE.eNodeB64.x2App[12].client 	ums 	1452
scalar ErlangenLTE.eNodeB64.x2App[13].client 	ums 	1452
scalar ErlangenLTE.eNodeB64.x2App[14].client 	ums 	1452
scalar ErlangenLTE.eNodeB64.x2App[15].client 	ums 	1452
scalar ErlangenLTE.eNodeB64.x2App[16].client 	ums 	1452
scalar ErlangenLTE.eNodeB64.x2App[17].client 	ums 	1452
scalar ErlangenLTE.eNodeB64.x2App[18].client 	ums 	1452
scalar ErlangenLTE.eNodeB64.x2App[19].client 	ums 	1452
scalar ErlangenLTE.eNodeB64.x2App[20].client 	ums 	1452
scalar ErlangenLTE.eNodeB64.x2App[21].client 	ums 	1452
scalar ErlangenLTE.eNodeB64.x2App[22].client 	ums 	1452
scalar ErlangenLTE.eNodeB64.x2App[23].client 	ums 	1452
scalar ErlangenLTE.eNodeB64.x2App[24].client 	ums 	1452
scalar ErlangenLTE.eNodeB64.x2App[25].client 	ums 	1452
scalar ErlangenLTE.eNodeB64.x2App[26].client 	ums 	1452
scalar ErlangenLTE.eNodeB64.x2App[27].client 	ums 	1452
scalar ErlangenLTE.eNodeB64.x2App[28].client 	ums 	1452
scalar ErlangenLTE.eNodeB65.x2App[0].client 	ums 	1452
scalar ErlangenLTE.eNodeB65.x2App[1].client 	ums 	1452
scalar ErlangenLTE.eNodeB65.x2App[2].client 	ums 	1452
scalar ErlangenLTE.eNodeB65.x2App[3].client 	ums 	1452
scalar ErlangenLTE.eNodeB65.x2App[4].client 	ums 	1452
scalar ErlangenLTE.eNodeB65.x2App[5].client 	ums 	1452
scalar ErlangenLTE.eNodeB65.x2App[6].client 	ums 	1452
scalar ErlangenLTE.eNodeB65.x2App[7].client 	ums 	1452
scalar ErlangenLTE.eNodeB65.x2App[8].client 	ums 	1452
scalar ErlangenLTE.eNodeB65.x2App[9].client 	ums 	1452
scalar ErlangenLTE.eNodeB65.x2App[10].client 	ums 	1452
scalar ErlangenLTE.eNodeB65.x2App[11].client 	ums 	1452
scalar ErlangenLTE.eNodeB65.x2App[12].client 	ums 	1452
scalar ErlangenLTE.eNodeB65.x2App[13].client 	ums 	1452
scalar ErlangenLTE.eNodeB65.x2App[14].client 	ums 	1452
scalar ErlangenLTE.eNodeB65.x2App[15].client 	ums 	1452
scalar ErlangenLTE.eNodeB65.x2App[16].client 	ums 	1452
scalar ErlangenLTE.eNodeB65.x2App[17].client 	ums 	1452
scalar ErlangenLTE.eNodeB65.x2App[18].client 	ums 	1452
scalar ErlangenLTE.eNodeB65.x2App[19].client 	ums 	1452
scalar ErlangenLTE.eNodeB65.x2App[20].client 	ums 	1452
scalar ErlangenLTE.eNodeB65.x2App[21].client 	ums 	1452
scalar ErlangenLTE.eNodeB65.x2App[22].client 	ums 	1452
scalar ErlangenLTE.eNodeB65.x2App[23].client 	ums 	1452
scalar ErlangenLTE.eNodeB65.x2App[24].client 	ums 	1452
scalar ErlangenLTE.eNodeB65.x2App[25].client 	ums 	1452
scalar ErlangenLTE.eNodeB66.x2App[0].client 	ums 	1452
scalar ErlangenLTE.eNodeB66.x2App[1].client 	ums 	1452
scalar ErlangenLTE.eNodeB66.x2App[2].client 	ums 	1452
scalar ErlangenLTE.eNodeB66.x2App[3].client 	ums 	1452
scalar ErlangenLTE.eNodeB66.x2App[4].client 	ums 	1452
scalar ErlangenLTE.eNodeB66.x2App[5].client 	ums 	1452
scalar ErlangenLTE.eNodeB66.x2App[6].client 	ums 	1452
scalar ErlangenLTE.eNodeB66.x2App[7].client 	ums 	1452
scalar ErlangenLTE.eNodeB66.x2App[8].client 	ums 	1452
scalar ErlangenLTE.eNodeB66.x2App[9].client 	ums 	1452
scalar ErlangenLTE.eNodeB66.x2App[10].client 	ums 	1452
scalar ErlangenLTE.eNodeB66.x2App[11].client 	ums 	1452
scalar ErlangenLTE.eNodeB66.x2App[12].client 	ums 	1452
scalar ErlangenLTE.eNodeB66.x2App[13].client 	ums 	1452
scalar ErlangenLTE.eNodeB66.x2App[14].client 	ums 	1452
scalar ErlangenLTE.eNodeB66.x2App[15].client 	ums 	1452
scalar ErlangenLTE.eNodeB66.x2App[16].client 	ums 	1452
scalar ErlangenLTE.eNodeB66.x2App[17].client 	ums 	1452
scalar ErlangenLTE.eNodeB66.x2App[18].client 	ums 	1452
scalar ErlangenLTE.eNodeB66.x2App[19].client 	ums 	1452
scalar ErlangenLTE.eNodeB66.x2App[20].client 	ums 	1452
scalar ErlangenLTE.eNodeB66.x2App[21].client 	ums 	1452
scalar ErlangenLTE.eNodeB66.x2App[22].client 	ums 	1452
scalar ErlangenLTE.eNodeB66.x2App[23].client 	ums 	1452
scalar ErlangenLTE.eNodeB66.x2App[24].client 	ums 	1452
scalar ErlangenLTE.eNodeB66.x2App[25].client 	ums 	1452
scalar ErlangenLTE.eNodeB66.x2App[26].client 	ums 	1452
scalar ErlangenLTE.eNodeB66.x2App[27].client 	ums 	1452
scalar ErlangenLTE.eNodeB66.x2App[28].client 	ums 	1452
scalar ErlangenLTE.eNodeB66.x2App[29].client 	ums 	1452
scalar ErlangenLTE.eNodeB66.x2App[30].client 	ums 	1452
scalar ErlangenLTE.eNodeB66.x2App[31].client 	ums 	1452
scalar ErlangenLTE.eNodeB66.x2App[32].client 	ums 	1452
scalar ErlangenLTE.eNodeB66.x2App[33].client 	ums 	1452
scalar ErlangenLTE.eNodeB66.x2App[34].client 	ums 	1452
scalar ErlangenLTE.eNodeB66.x2App[35].client 	ums 	1452
scalar ErlangenLTE.eNodeB66.x2App[36].client 	ums 	1452
