version 2
run VoIP-DL-0-20190209-12:38:21-20516
attr configname VoIP-DL
attr datetime 20190209-12:38:21
attr experiment VoIP-DL
attr inifile omnetpp.ini
attr iterationvars ""
attr iterationvarsf ""
attr measurement ""
attr network ErlangenLTE
attr processid 20516
attr repetition 0
attr replication #0
attr resultdir results
attr runnumber 0
attr seedset 0
param **.broadcastMessageInterval 0.2s
param **.car[*].macCellId 1
param **.car[*].masterId 1
param **.channelControl.alpha 1.0
param **.channelControl.carrierFrequency 2100e+6Hz
param **.channelControl.pMax 1W
param **.coreDebug false
param **.deployer.antennaCws "\"2;\""
param **.deployer.numRbDl 25
param **.deployer.numRbUl 25
param **.deployer.positionUpdateInterval 0.05s
param **.deployer.ruRange 50
param **.deployer.ruTxPower "\"50,50,50;\""
param **.dynamicCellAssociation true
param **.eNodeB*.mobility.constraintAreaMaxX 3000m
param **.eNodeB*.mobility.constraintAreaMaxY 3000m
param **.eNodeB*.mobility.constraintAreaMaxZ 0m
param **.eNodeB*.mobility.constraintAreaMinX 0m
param **.eNodeB*.mobility.constraintAreaMinY 0m
param **.eNodeB*.mobility.constraintAreaMinZ 0m
param **.eNodeB*.mobility.initFromDisplayString true
param **.eNodeB1.macCellId 1
param **.eNodeB1.macNodeId 1
param **.eNodeB10.macCellId 10
param **.eNodeB10.macNodeId 10
param **.eNodeB11.macCellId 11
param **.eNodeB11.macNodeId 11
param **.eNodeB12.macCellId 12
param **.eNodeB12.macNodeId 12
param **.eNodeB13.macCellId 13
param **.eNodeB13.macNodeId 13
param **.eNodeB14.macCellId 14
param **.eNodeB14.macNodeId 14
param **.eNodeB15.macCellId 15
param **.eNodeB15.macNodeId 15
param **.eNodeB16.macCellId 16
param **.eNodeB16.macNodeId 16
param **.eNodeB17.macCellId 17
param **.eNodeB17.macNodeId 17
param **.eNodeB18.macCellId 18
param **.eNodeB18.macNodeId 18
param **.eNodeB19.macCellId 19
param **.eNodeB19.macNodeId 19
param **.eNodeB2.macCellId 2
param **.eNodeB2.macNodeId 2
param **.eNodeB20.macCellId 20
param **.eNodeB20.macNodeId 20
param **.eNodeB21.macCellId 21
param **.eNodeB21.macNodeId 21
param **.eNodeB22.macCellId 22
param **.eNodeB22.macNodeId 22
param **.eNodeB23.macCellId 23
param **.eNodeB23.macNodeId 23
param **.eNodeB24.macCellId 24
param **.eNodeB24.macNodeId 24
param **.eNodeB25.macCellId 25
param **.eNodeB25.macNodeId 25
param **.eNodeB26.macCellId 26
param **.eNodeB26.macNodeId 26
param **.eNodeB27.macCellId 27
param **.eNodeB27.macNodeId 27
param **.eNodeB28.macCellId 28
param **.eNodeB28.macNodeId 28
param **.eNodeB29.macCellId 29
param **.eNodeB29.macNodeId 29
param **.eNodeB3.macCellId 3
param **.eNodeB3.macNodeId 3
param **.eNodeB30.macCellId 30
param **.eNodeB30.macNodeId 30
param **.eNodeB31.macCellId 31
param **.eNodeB31.macNodeId 31
param **.eNodeB32.macCellId 32
param **.eNodeB32.macNodeId 32
param **.eNodeB33.macCellId 33
param **.eNodeB33.macNodeId 33
param **.eNodeB34.macCellId 34
param **.eNodeB34.macNodeId 34
param **.eNodeB35.macCellId 35
param **.eNodeB35.macNodeId 35
param **.eNodeB36.macCellId 36
param **.eNodeB36.macNodeId 36
param **.eNodeB37.macCellId 37
param **.eNodeB37.macNodeId 37
param **.eNodeB38.macCellId 38
param **.eNodeB38.macNodeId 38
param **.eNodeB39.macCellId 39
param **.eNodeB39.macNodeId 39
param **.eNodeB4.macCellId 4
param **.eNodeB4.macNodeId 4
param **.eNodeB40.macCellId 40
param **.eNodeB40.macNodeId 40
param **.eNodeB41.macCellId 41
param **.eNodeB41.macNodeId 41
param **.eNodeB42.macCellId 42
param **.eNodeB42.macNodeId 42
param **.eNodeB43.macCellId 43
param **.eNodeB43.macNodeId 43
param **.eNodeB44.macCellId 44
param **.eNodeB44.macNodeId 44
param **.eNodeB45.macCellId 45
param **.eNodeB45.macNodeId 45
param **.eNodeB46.macCellId 46
param **.eNodeB46.macNodeId 46
param **.eNodeB47.macCellId 47
param **.eNodeB47.macNodeId 47
param **.eNodeB48.macCellId 48
param **.eNodeB48.macNodeId 48
param **.eNodeB49.macCellId 49
param **.eNodeB49.macNodeId 49
param **.eNodeB5.macCellId 5
param **.eNodeB5.macNodeId 5
param **.eNodeB50.macCellId 50
param **.eNodeB50.macNodeId 50
param **.eNodeB51.macCellId 51
param **.eNodeB51.macNodeId 51
param **.eNodeB52.macCellId 52
param **.eNodeB52.macNodeId 52
param **.eNodeB53.macCellId 53
param **.eNodeB53.macNodeId 53
param **.eNodeB54.macCellId 54
param **.eNodeB54.macNodeId 54
param **.eNodeB55.macCellId 55
param **.eNodeB55.macNodeId 55
param **.eNodeB56.macCellId 56
param **.eNodeB56.macNodeId 56
param **.eNodeB57.macCellId 57
param **.eNodeB57.macNodeId 57
param **.eNodeB58.macCellId 58
param **.eNodeB58.macNodeId 58
param **.eNodeB59.macCellId 59
param **.eNodeB59.macNodeId 59
param **.eNodeB6.macCellId 6
param **.eNodeB6.macNodeId 6
param **.eNodeB60.macCellId 60
param **.eNodeB60.macNodeId 60
param **.eNodeB61.macCellId 61
param **.eNodeB61.macNodeId 61
param **.eNodeB62.macCellId 62
param **.eNodeB62.macNodeId 62
param **.eNodeB63.macCellId 63
param **.eNodeB63.macNodeId 63
param **.eNodeB64.macCellId 64
param **.eNodeB64.macNodeId 64
param **.eNodeB65.macCellId 65
param **.eNodeB65.macNodeId 65
param **.eNodeB66.macCellId 66
param **.eNodeB66.macNodeId 66
param **.eNodeB7.macCellId 7
param **.eNodeB7.macNodeId 7
param **.eNodeB8.macCellId 8
param **.eNodeB8.macNodeId 8
param **.eNodeB9.macCellId 9
param **.eNodeB9.macNodeId 9
param **.eNodeBCount 66
param **.enableHandover true
param **.fbDelay 1
param **.feedbackComputation "xmldoc(\"config_channel.xml\")"
param **.feedbackGeneratorType "\"IDEAL\""
param **.feedbackType "\"ALLBANDS\""
param **.lteNic.phy.channelModel "xmldoc(\"config_channel.xml\")"
param **.maxHarqRtx 3
param **.numBands 25
param **.numUe 457
param **.rbAllocationType "\"localized\""
param **.routingRecorder.enabled false
param **.sctp.enableHeartbeats false
param **.sctp.nagleEnabled false
param *.annotations.draw true
param *.car[*].configurator.mcastGroups "\"224.0.0.10\""
param *.car[*].mobilityType "\"VeinsInetMobility\""
param *.car[*].numUdpApps 1
param *.car[*].udpApp[0].typename "\"VoIPReceiver\""
param *.eNodeB*.deployer.microCell true
param *.eNodeB*.txPower 0.1mw
param *.eNodeB*.x2App[*].server.localPort "5000 + ancestorIndex(1)"
param *.eNodeB1.numX2Apps 14
param *.eNodeB1.x2App[0].client.connectAddress "\"eNodeB22%x2ppp0\""
param *.eNodeB1.x2App[10].client.connectAddress "\"eNodeB45%x2ppp0\""
param *.eNodeB1.x2App[11].client.connectAddress "\"eNodeB54%x2ppp0\""
param *.eNodeB1.x2App[12].client.connectAddress "\"eNodeB58%x2ppp0\""
param *.eNodeB1.x2App[13].client.connectAddress "\"eNodeB66%x2ppp0\""
param *.eNodeB1.x2App[1].client.connectAddress "\"eNodeB41%x2ppp0\""
param *.eNodeB1.x2App[2].client.connectAddress "\"eNodeB50%x2ppp0\""
param *.eNodeB1.x2App[3].client.connectAddress "\"eNodeB14%x2ppp0\""
param *.eNodeB1.x2App[4].client.connectAddress "\"eNodeB43%x2ppp0\""
param *.eNodeB1.x2App[5].client.connectAddress "\"eNodeB6%x2ppp0\""
param *.eNodeB1.x2App[6].client.connectAddress "\"eNodeB11%x2ppp0\""
param *.eNodeB1.x2App[7].client.connectAddress "\"eNodeB27%x2ppp0\""
param *.eNodeB1.x2App[8].client.connectAddress "\"eNodeB37%x2ppp0\""
param *.eNodeB1.x2App[9].client.connectAddress "\"eNodeB42%x2ppp0\""
param *.eNodeB10.numX2Apps 13
param *.eNodeB10.x2App[0].client.connectAddress "\"eNodeB7%x2ppp3\""
param *.eNodeB10.x2App[10].client.connectAddress "\"eNodeB35%x2ppp3\""
param *.eNodeB10.x2App[11].client.connectAddress "\"eNodeB60%x2ppp1\""
param *.eNodeB10.x2App[12].client.connectAddress "\"eNodeB65%x2ppp0\""
param *.eNodeB10.x2App[1].client.connectAddress "\"eNodeB8%x2ppp4\""
param *.eNodeB10.x2App[2].client.connectAddress "\"eNodeB13%x2ppp3\""
param *.eNodeB10.x2App[3].client.connectAddress "\"eNodeB57%x2ppp2\""
param *.eNodeB10.x2App[4].client.connectAddress "\"eNodeB63%x2ppp2\""
param *.eNodeB10.x2App[5].client.connectAddress "\"eNodeB15%x2ppp0\""
param *.eNodeB10.x2App[6].client.connectAddress "\"eNodeB28%x2ppp1\""
param *.eNodeB10.x2App[7].client.connectAddress "\"eNodeB47%x2ppp5\""
param *.eNodeB10.x2App[8].client.connectAddress "\"eNodeB64%x2ppp2\""
param *.eNodeB10.x2App[9].client.connectAddress "\"eNodeB31%x2ppp4\""
param *.eNodeB11.numX2Apps 10
param *.eNodeB11.x2App[0].client.connectAddress "\"eNodeB22%x2ppp2\""
param *.eNodeB11.x2App[1].client.connectAddress "\"eNodeB39%x2ppp0\""
param *.eNodeB11.x2App[2].client.connectAddress "\"eNodeB40%x2ppp0\""
param *.eNodeB11.x2App[3].client.connectAddress "\"eNodeB54%x2ppp1\""
param *.eNodeB11.x2App[4].client.connectAddress "\"eNodeB18%x2ppp0\""
param *.eNodeB11.x2App[5].client.connectAddress "\"eNodeB43%x2ppp2\""
param *.eNodeB11.x2App[6].client.connectAddress "\"eNodeB1%x2ppp1\""
param *.eNodeB11.x2App[7].client.connectAddress "\"eNodeB14%x2ppp3\""
param *.eNodeB11.x2App[8].client.connectAddress "\"eNodeB41%x2ppp3\""
param *.eNodeB11.x2App[9].client.connectAddress "\"eNodeB66%x2ppp3\""
param *.eNodeB12.numX2Apps 9
param *.eNodeB12.x2App[0].client.connectAddress "\"eNodeB3%x2ppp0\""
param *.eNodeB12.x2App[1].client.connectAddress "\"eNodeB62%x2ppp1\""
param *.eNodeB12.x2App[2].client.connectAddress "\"eNodeB36%x2ppp0\""
param *.eNodeB12.x2App[3].client.connectAddress "\"eNodeB38%x2ppp1\""
param *.eNodeB12.x2App[4].client.connectAddress "\"eNodeB55%x2ppp2\""
param *.eNodeB12.x2App[5].client.connectAddress "\"eNodeB30%x2ppp3\""
param *.eNodeB12.x2App[6].client.connectAddress "\"eNodeB32%x2ppp4\""
param *.eNodeB12.x2App[7].client.connectAddress "\"eNodeB44%x2ppp2\""
param *.eNodeB12.x2App[8].client.connectAddress "\"eNodeB46%x2ppp3\""
param *.eNodeB13.numX2Apps 14
param *.eNodeB13.x2App[0].client.connectAddress "\"eNodeB8%x2ppp5\""
param *.eNodeB13.x2App[10].client.connectAddress "\"eNodeB47%x2ppp6\""
param *.eNodeB13.x2App[11].client.connectAddress "\"eNodeB60%x2ppp2\""
param *.eNodeB13.x2App[12].client.connectAddress "\"eNodeB64%x2ppp3\""
param *.eNodeB13.x2App[13].client.connectAddress "\"eNodeB65%x2ppp1\""
param *.eNodeB13.x2App[1].client.connectAddress "\"eNodeB10%x2ppp2\""
param *.eNodeB13.x2App[2].client.connectAddress "\"eNodeB31%x2ppp5\""
param *.eNodeB13.x2App[3].client.connectAddress "\"eNodeB63%x2ppp3\""
param *.eNodeB13.x2App[4].client.connectAddress "\"eNodeB57%x2ppp3\""
param *.eNodeB13.x2App[5].client.connectAddress "\"eNodeB2%x2ppp4\""
param *.eNodeB13.x2App[6].client.connectAddress "\"eNodeB7%x2ppp4\""
param *.eNodeB13.x2App[7].client.connectAddress "\"eNodeB19%x2ppp1\""
param *.eNodeB13.x2App[8].client.connectAddress "\"eNodeB28%x2ppp2\""
param *.eNodeB13.x2App[9].client.connectAddress "\"eNodeB35%x2ppp4\""
param *.eNodeB14.numX2Apps 17
param *.eNodeB14.x2App[0].client.connectAddress "\"eNodeB1%x2ppp2\""
param *.eNodeB14.x2App[10].client.connectAddress "\"eNodeB11%x2ppp1\""
param *.eNodeB14.x2App[11].client.connectAddress "\"eNodeB34%x2ppp4\""
param *.eNodeB14.x2App[12].client.connectAddress "\"eNodeB37%x2ppp2\""
param *.eNodeB14.x2App[13].client.connectAddress "\"eNodeB40%x2ppp1\""
param *.eNodeB14.x2App[14].client.connectAddress "\"eNodeB42%x2ppp2\""
param *.eNodeB14.x2App[15].client.connectAddress "\"eNodeB43%x2ppp3\""
param *.eNodeB14.x2App[16].client.connectAddress "\"eNodeB50%x2ppp2\""
param *.eNodeB14.x2App[1].client.connectAddress "\"eNodeB41%x2ppp4\""
param *.eNodeB14.x2App[2].client.connectAddress "\"eNodeB66%x2ppp4\""
param *.eNodeB14.x2App[3].client.connectAddress "\"eNodeB22%x2ppp3\""
param *.eNodeB14.x2App[4].client.connectAddress "\"eNodeB27%x2ppp4\""
param *.eNodeB14.x2App[5].client.connectAddress "\"eNodeB45%x2ppp3\""
param *.eNodeB14.x2App[6].client.connectAddress "\"eNodeB54%x2ppp2\""
param *.eNodeB14.x2App[7].client.connectAddress "\"eNodeB58%x2ppp3\""
param *.eNodeB14.x2App[8].client.connectAddress "\"eNodeB6%x2ppp1\""
param *.eNodeB14.x2App[9].client.connectAddress "\"eNodeB9%x2ppp3\""
param *.eNodeB15.numX2Apps 10
param *.eNodeB15.x2App[0].client.connectAddress "\"eNodeB10%x2ppp3\""
param *.eNodeB15.x2App[1].client.connectAddress "\"eNodeB23%x2ppp2\""
param *.eNodeB15.x2App[2].client.connectAddress "\"eNodeB28%x2ppp3\""
param *.eNodeB15.x2App[3].client.connectAddress "\"eNodeB60%x2ppp3\""
param *.eNodeB15.x2App[4].client.connectAddress "\"eNodeB64%x2ppp4\""
param *.eNodeB15.x2App[5].client.connectAddress "\"eNodeB24%x2ppp0\""
param *.eNodeB15.x2App[6].client.connectAddress "\"eNodeB57%x2ppp4\""
param *.eNodeB15.x2App[7].client.connectAddress "\"eNodeB59%x2ppp0\""
param *.eNodeB15.x2App[8].client.connectAddress "\"eNodeB16%x2ppp1\""
param *.eNodeB15.x2App[9].client.connectAddress "\"eNodeB65%x2ppp2\""
param *.eNodeB16.numX2Apps 7
param *.eNodeB16.x2App[0].client.connectAddress "\"eNodeB7%x2ppp5\""
param *.eNodeB16.x2App[1].client.connectAddress "\"eNodeB15%x2ppp1\""
param *.eNodeB16.x2App[2].client.connectAddress "\"eNodeB21%x2ppp0\""
param *.eNodeB16.x2App[3].client.connectAddress "\"eNodeB23%x2ppp3\""
param *.eNodeB16.x2App[4].client.connectAddress "\"eNodeB59%x2ppp1\""
param *.eNodeB16.x2App[5].client.connectAddress "\"eNodeB61%x2ppp0\""
param *.eNodeB16.x2App[6].client.connectAddress "\"eNodeB64%x2ppp5\""
param *.eNodeB17.numX2Apps 8
param *.eNodeB17.x2App[0].client.connectAddress "\"eNodeB4%x2ppp0\""
param *.eNodeB17.x2App[1].client.connectAddress "\"eNodeB20%x2ppp1\""
param *.eNodeB17.x2App[2].client.connectAddress "\"eNodeB49%x2ppp1\""
param *.eNodeB17.x2App[3].client.connectAddress "\"eNodeB56%x2ppp1\""
param *.eNodeB17.x2App[4].client.connectAddress "\"eNodeB29%x2ppp2\""
param *.eNodeB17.x2App[5].client.connectAddress "\"eNodeB51%x2ppp1\""
param *.eNodeB17.x2App[6].client.connectAddress "\"eNodeB52%x2ppp2\""
param *.eNodeB17.x2App[7].client.connectAddress "\"eNodeB55%x2ppp3\""
param *.eNodeB18.numX2Apps 8
param *.eNodeB18.x2App[0].client.connectAddress "\"eNodeB11%x2ppp2\""
param *.eNodeB18.x2App[1].client.connectAddress "\"eNodeB19%x2ppp2\""
param *.eNodeB18.x2App[2].client.connectAddress "\"eNodeB39%x2ppp1\""
param *.eNodeB18.x2App[3].client.connectAddress "\"eNodeB40%x2ppp2\""
param *.eNodeB18.x2App[4].client.connectAddress "\"eNodeB48%x2ppp0\""
param *.eNodeB18.x2App[5].client.connectAddress "\"eNodeB65%x2ppp3\""
param *.eNodeB18.x2App[6].client.connectAddress "\"eNodeB35%x2ppp5\""
param *.eNodeB18.x2App[7].client.connectAddress "\"eNodeB54%x2ppp3\""
param *.eNodeB19.numX2Apps 11
param *.eNodeB19.x2App[0].client.connectAddress "\"eNodeB9%x2ppp4\""
param *.eNodeB19.x2App[10].client.connectAddress "\"eNodeB31%x2ppp6\""
param *.eNodeB19.x2App[1].client.connectAddress "\"eNodeB18%x2ppp1\""
param *.eNodeB19.x2App[2].client.connectAddress "\"eNodeB35%x2ppp6\""
param *.eNodeB19.x2App[3].client.connectAddress "\"eNodeB48%x2ppp1\""
param *.eNodeB19.x2App[4].client.connectAddress "\"eNodeB40%x2ppp3\""
param *.eNodeB19.x2App[5].client.connectAddress "\"eNodeB54%x2ppp4\""
param *.eNodeB19.x2App[6].client.connectAddress "\"eNodeB58%x2ppp4\""
param *.eNodeB19.x2App[7].client.connectAddress "\"eNodeB63%x2ppp4\""
param *.eNodeB19.x2App[8].client.connectAddress "\"eNodeB66%x2ppp5\""
param *.eNodeB19.x2App[9].client.connectAddress "\"eNodeB13%x2ppp4\""
param *.eNodeB2.numX2Apps 13
param *.eNodeB2.x2App[0].client.connectAddress "\"eNodeB5%x2ppp0\""
param *.eNodeB2.x2App[10].client.connectAddress "\"eNodeB47%x2ppp0\""
param *.eNodeB2.x2App[11].client.connectAddress "\"eNodeB13%x2ppp0\""
param *.eNodeB2.x2App[12].client.connectAddress "\"eNodeB34%x2ppp0\""
param *.eNodeB2.x2App[1].client.connectAddress "\"eNodeB7%x2ppp0\""
param *.eNodeB2.x2App[2].client.connectAddress "\"eNodeB32%x2ppp0\""
param *.eNodeB2.x2App[3].client.connectAddress "\"eNodeB8%x2ppp0\""
param *.eNodeB2.x2App[4].client.connectAddress "\"eNodeB9%x2ppp0\""
param *.eNodeB2.x2App[5].client.connectAddress "\"eNodeB23%x2ppp0\""
param *.eNodeB2.x2App[6].client.connectAddress "\"eNodeB25%x2ppp0\""
param *.eNodeB2.x2App[7].client.connectAddress "\"eNodeB30%x2ppp0\""
param *.eNodeB2.x2App[8].client.connectAddress "\"eNodeB31%x2ppp0\""
param *.eNodeB2.x2App[9].client.connectAddress "\"eNodeB46%x2ppp0\""
param *.eNodeB20.numX2Apps 7
param *.eNodeB20.x2App[0].client.connectAddress "\"eNodeB4%x2ppp1\""
param *.eNodeB20.x2App[1].client.connectAddress "\"eNodeB17%x2ppp1\""
param *.eNodeB20.x2App[2].client.connectAddress "\"eNodeB49%x2ppp2\""
param *.eNodeB20.x2App[3].client.connectAddress "\"eNodeB25%x2ppp2\""
param *.eNodeB20.x2App[4].client.connectAddress "\"eNodeB46%x2ppp4\""
param *.eNodeB20.x2App[5].client.connectAddress "\"eNodeB52%x2ppp3\""
param *.eNodeB20.x2App[6].client.connectAddress "\"eNodeB55%x2ppp4\""
param *.eNodeB21.numX2Apps 4
param *.eNodeB21.x2App[0].client.connectAddress "\"eNodeB16%x2ppp2\""
param *.eNodeB21.x2App[1].client.connectAddress "\"eNodeB23%x2ppp4\""
param *.eNodeB21.x2App[2].client.connectAddress "\"eNodeB36%x2ppp1\""
param *.eNodeB21.x2App[3].client.connectAddress "\"eNodeB38%x2ppp2\""
param *.eNodeB22.numX2Apps 14
param *.eNodeB22.x2App[0].client.connectAddress "\"eNodeB1%x2ppp3\""
param *.eNodeB22.x2App[10].client.connectAddress "\"eNodeB42%x2ppp3\""
param *.eNodeB22.x2App[11].client.connectAddress "\"eNodeB45%x2ppp4\""
param *.eNodeB22.x2App[12].client.connectAddress "\"eNodeB50%x2ppp3\""
param *.eNodeB22.x2App[13].client.connectAddress "\"eNodeB58%x2ppp5\""
param *.eNodeB22.x2App[1].client.connectAddress "\"eNodeB11%x2ppp3\""
param *.eNodeB22.x2App[2].client.connectAddress "\"eNodeB14%x2ppp4\""
param *.eNodeB22.x2App[3].client.connectAddress "\"eNodeB54%x2ppp5\""
param *.eNodeB22.x2App[4].client.connectAddress "\"eNodeB41%x2ppp5\""
param *.eNodeB22.x2App[5].client.connectAddress "\"eNodeB43%x2ppp4\""
param *.eNodeB22.x2App[6].client.connectAddress "\"eNodeB66%x2ppp6\""
param *.eNodeB22.x2App[7].client.connectAddress "\"eNodeB6%x2ppp2\""
param *.eNodeB22.x2App[8].client.connectAddress "\"eNodeB37%x2ppp3\""
param *.eNodeB22.x2App[9].client.connectAddress "\"eNodeB40%x2ppp4\""
param *.eNodeB23.numX2Apps 10
param *.eNodeB23.x2App[0].client.connectAddress "\"eNodeB2%x2ppp5\""
param *.eNodeB23.x2App[1].client.connectAddress "\"eNodeB7%x2ppp6\""
param *.eNodeB23.x2App[2].client.connectAddress "\"eNodeB15%x2ppp2\""
param *.eNodeB23.x2App[3].client.connectAddress "\"eNodeB16%x2ppp3\""
param *.eNodeB23.x2App[4].client.connectAddress "\"eNodeB21%x2ppp1\""
param *.eNodeB23.x2App[5].client.connectAddress "\"eNodeB30%x2ppp4\""
param *.eNodeB23.x2App[6].client.connectAddress "\"eNodeB36%x2ppp2\""
param *.eNodeB23.x2App[7].client.connectAddress "\"eNodeB38%x2ppp3\""
param *.eNodeB23.x2App[8].client.connectAddress "\"eNodeB44%x2ppp3\""
param *.eNodeB23.x2App[9].client.connectAddress "\"eNodeB64%x2ppp6\""
param *.eNodeB24.numX2Apps 7
param *.eNodeB24.x2App[0].client.connectAddress "\"eNodeB15%x2ppp3\""
param *.eNodeB24.x2App[1].client.connectAddress "\"eNodeB59%x2ppp2\""
param *.eNodeB24.x2App[2].client.connectAddress "\"eNodeB60%x2ppp4\""
param *.eNodeB24.x2App[3].client.connectAddress "\"eNodeB65%x2ppp4\""
param *.eNodeB24.x2App[4].client.connectAddress "\"eNodeB28%x2ppp4\""
param *.eNodeB24.x2App[5].client.connectAddress "\"eNodeB39%x2ppp2\""
param *.eNodeB24.x2App[6].client.connectAddress "\"eNodeB64%x2ppp7\""
param *.eNodeB25.numX2Apps 12
param *.eNodeB25.x2App[0].client.connectAddress "\"eNodeB2%x2ppp6\""
param *.eNodeB25.x2App[10].client.connectAddress "\"eNodeB55%x2ppp5\""
param *.eNodeB25.x2App[11].client.connectAddress "\"eNodeB29%x2ppp3\""
param *.eNodeB25.x2App[1].client.connectAddress "\"eNodeB5%x2ppp4\""
param *.eNodeB25.x2App[2].client.connectAddress "\"eNodeB20%x2ppp2\""
param *.eNodeB25.x2App[3].client.connectAddress "\"eNodeB46%x2ppp5\""
param *.eNodeB25.x2App[4].client.connectAddress "\"eNodeB52%x2ppp4\""
param *.eNodeB25.x2App[5].client.connectAddress "\"eNodeB32%x2ppp5\""
param *.eNodeB25.x2App[6].client.connectAddress "\"eNodeB34%x2ppp5\""
param *.eNodeB25.x2App[7].client.connectAddress "\"eNodeB49%x2ppp3\""
param *.eNodeB25.x2App[8].client.connectAddress "\"eNodeB51%x2ppp2\""
param *.eNodeB25.x2App[9].client.connectAddress "\"eNodeB53%x2ppp3\""
param *.eNodeB26.numX2Apps 3
param *.eNodeB26.x2App[0].client.connectAddress "\"eNodeB39%x2ppp3\""
param *.eNodeB26.x2App[1].client.connectAddress "\"eNodeB59%x2ppp3\""
param *.eNodeB26.x2App[2].client.connectAddress "\"eNodeB61%x2ppp1\""
param *.eNodeB27.numX2Apps 15
param *.eNodeB27.x2App[0].client.connectAddress "\"eNodeB5%x2ppp5\""
param *.eNodeB27.x2App[10].client.connectAddress "\"eNodeB53%x2ppp4\""
param *.eNodeB27.x2App[11].client.connectAddress "\"eNodeB66%x2ppp7\""
param *.eNodeB27.x2App[12].client.connectAddress "\"eNodeB1%x2ppp4\""
param *.eNodeB27.x2App[13].client.connectAddress "\"eNodeB37%x2ppp4\""
param *.eNodeB27.x2App[14].client.connectAddress "\"eNodeB52%x2ppp5\""
param *.eNodeB27.x2App[1].client.connectAddress "\"eNodeB6%x2ppp3\""
param *.eNodeB27.x2App[2].client.connectAddress "\"eNodeB9%x2ppp5\""
param *.eNodeB27.x2App[3].client.connectAddress "\"eNodeB14%x2ppp5\""
param *.eNodeB27.x2App[4].client.connectAddress "\"eNodeB34%x2ppp6\""
param *.eNodeB27.x2App[5].client.connectAddress "\"eNodeB58%x2ppp6\""
param *.eNodeB27.x2App[6].client.connectAddress "\"eNodeB29%x2ppp4\""
param *.eNodeB27.x2App[7].client.connectAddress "\"eNodeB41%x2ppp6\""
param *.eNodeB27.x2App[8].client.connectAddress "\"eNodeB45%x2ppp5\""
param *.eNodeB27.x2App[9].client.connectAddress "\"eNodeB50%x2ppp4\""
param *.eNodeB28.numX2Apps 13
param *.eNodeB28.x2App[0].client.connectAddress "\"eNodeB10%x2ppp4\""
param *.eNodeB28.x2App[10].client.connectAddress "\"eNodeB59%x2ppp4\""
param *.eNodeB28.x2App[11].client.connectAddress "\"eNodeB63%x2ppp5\""
param *.eNodeB28.x2App[12].client.connectAddress "\"eNodeB65%x2ppp5\""
param *.eNodeB28.x2App[1].client.connectAddress "\"eNodeB15%x2ppp4\""
param *.eNodeB28.x2App[2].client.connectAddress "\"eNodeB24%x2ppp1\""
param *.eNodeB28.x2App[3].client.connectAddress "\"eNodeB60%x2ppp5\""
param *.eNodeB28.x2App[4].client.connectAddress "\"eNodeB64%x2ppp8\""
param *.eNodeB28.x2App[5].client.connectAddress "\"eNodeB57%x2ppp5\""
param *.eNodeB28.x2App[6].client.connectAddress "\"eNodeB8%x2ppp6\""
param *.eNodeB28.x2App[7].client.connectAddress "\"eNodeB13%x2ppp5\""
param *.eNodeB28.x2App[8].client.connectAddress "\"eNodeB31%x2ppp7\""
param *.eNodeB28.x2App[9].client.connectAddress "\"eNodeB47%x2ppp7\""
param *.eNodeB29.numX2Apps 12
param *.eNodeB29.x2App[0].client.connectAddress "\"eNodeB5%x2ppp6\""
param *.eNodeB29.x2App[10].client.connectAddress "\"eNodeB34%x2ppp7\""
param *.eNodeB29.x2App[11].client.connectAddress "\"eNodeB45%x2ppp6\""
param *.eNodeB29.x2App[1].client.connectAddress "\"eNodeB6%x2ppp4\""
param *.eNodeB29.x2App[2].client.connectAddress "\"eNodeB27%x2ppp5\""
param *.eNodeB29.x2App[3].client.connectAddress "\"eNodeB51%x2ppp3\""
param *.eNodeB29.x2App[4].client.connectAddress "\"eNodeB52%x2ppp6\""
param *.eNodeB29.x2App[5].client.connectAddress "\"eNodeB53%x2ppp5\""
param *.eNodeB29.x2App[6].client.connectAddress "\"eNodeB33%x2ppp1\""
param *.eNodeB29.x2App[7].client.connectAddress "\"eNodeB49%x2ppp4\""
param *.eNodeB29.x2App[8].client.connectAddress "\"eNodeB17%x2ppp2\""
param *.eNodeB29.x2App[9].client.connectAddress "\"eNodeB25%x2ppp3\""
param *.eNodeB3.numX2Apps 8
param *.eNodeB3.x2App[0].client.connectAddress "\"eNodeB12%x2ppp0\""
param *.eNodeB3.x2App[1].client.connectAddress "\"eNodeB46%x2ppp1\""
param *.eNodeB3.x2App[2].client.connectAddress "\"eNodeB62%x2ppp0\""
param *.eNodeB3.x2App[3].client.connectAddress "\"eNodeB30%x2ppp1\""
param *.eNodeB3.x2App[4].client.connectAddress "\"eNodeB32%x2ppp1\""
param *.eNodeB3.x2App[5].client.connectAddress "\"eNodeB55%x2ppp0\""
param *.eNodeB3.x2App[6].client.connectAddress "\"eNodeB38%x2ppp0\""
param *.eNodeB3.x2App[7].client.connectAddress "\"eNodeB44%x2ppp0\""
param *.eNodeB30.numX2Apps 11
param *.eNodeB30.x2App[0].client.connectAddress "\"eNodeB2%x2ppp7\""
param *.eNodeB30.x2App[10].client.connectAddress "\"eNodeB55%x2ppp6\""
param *.eNodeB30.x2App[1].client.connectAddress "\"eNodeB3%x2ppp1\""
param *.eNodeB30.x2App[2].client.connectAddress "\"eNodeB7%x2ppp7\""
param *.eNodeB30.x2App[3].client.connectAddress "\"eNodeB23%x2ppp5\""
param *.eNodeB30.x2App[4].client.connectAddress "\"eNodeB32%x2ppp6\""
param *.eNodeB30.x2App[5].client.connectAddress "\"eNodeB62%x2ppp2\""
param *.eNodeB30.x2App[6].client.connectAddress "\"eNodeB38%x2ppp4\""
param *.eNodeB30.x2App[7].client.connectAddress "\"eNodeB44%x2ppp4\""
param *.eNodeB30.x2App[8].client.connectAddress "\"eNodeB46%x2ppp6\""
param *.eNodeB30.x2App[9].client.connectAddress "\"eNodeB12%x2ppp1\""
param *.eNodeB31.numX2Apps 16
param *.eNodeB31.x2App[0].client.connectAddress "\"eNodeB2%x2ppp8\""
param *.eNodeB31.x2App[10].client.connectAddress "\"eNodeB47%x2ppp8\""
param *.eNodeB31.x2App[11].client.connectAddress "\"eNodeB48%x2ppp2\""
param *.eNodeB31.x2App[12].client.connectAddress "\"eNodeB57%x2ppp6\""
param *.eNodeB31.x2App[13].client.connectAddress "\"eNodeB60%x2ppp6\""
param *.eNodeB31.x2App[14].client.connectAddress "\"eNodeB64%x2ppp9\""
param *.eNodeB31.x2App[15].client.connectAddress "\"eNodeB65%x2ppp6\""
param *.eNodeB31.x2App[1].client.connectAddress "\"eNodeB8%x2ppp7\""
param *.eNodeB31.x2App[2].client.connectAddress "\"eNodeB9%x2ppp6\""
param *.eNodeB31.x2App[3].client.connectAddress "\"eNodeB13%x2ppp6\""
param *.eNodeB31.x2App[4].client.connectAddress "\"eNodeB63%x2ppp6\""
param *.eNodeB31.x2App[5].client.connectAddress "\"eNodeB35%x2ppp7\""
param *.eNodeB31.x2App[6].client.connectAddress "\"eNodeB7%x2ppp8\""
param *.eNodeB31.x2App[7].client.connectAddress "\"eNodeB10%x2ppp5\""
param *.eNodeB31.x2App[8].client.connectAddress "\"eNodeB19%x2ppp3\""
param *.eNodeB31.x2App[9].client.connectAddress "\"eNodeB28%x2ppp5\""
param *.eNodeB32.numX2Apps 12
param *.eNodeB32.x2App[0].client.connectAddress "\"eNodeB2%x2ppp9\""
param *.eNodeB32.x2App[10].client.connectAddress "\"eNodeB44%x2ppp5\""
param *.eNodeB32.x2App[11].client.connectAddress "\"eNodeB55%x2ppp7\""
param *.eNodeB32.x2App[1].client.connectAddress "\"eNodeB3%x2ppp2\""
param *.eNodeB32.x2App[2].client.connectAddress "\"eNodeB5%x2ppp7\""
param *.eNodeB32.x2App[3].client.connectAddress "\"eNodeB7%x2ppp9\""
param *.eNodeB32.x2App[4].client.connectAddress "\"eNodeB25%x2ppp4\""
param *.eNodeB32.x2App[5].client.connectAddress "\"eNodeB30%x2ppp5\""
param *.eNodeB32.x2App[6].client.connectAddress "\"eNodeB46%x2ppp7\""
param *.eNodeB32.x2App[7].client.connectAddress "\"eNodeB62%x2ppp3\""
param *.eNodeB32.x2App[8].client.connectAddress "\"eNodeB12%x2ppp2\""
param *.eNodeB32.x2App[9].client.connectAddress "\"eNodeB38%x2ppp5\""
param *.eNodeB33.numX2Apps 10
param *.eNodeB33.x2App[0].client.connectAddress "\"eNodeB6%x2ppp5\""
param *.eNodeB33.x2App[1].client.connectAddress "\"eNodeB29%x2ppp5\""
param *.eNodeB33.x2App[2].client.connectAddress "\"eNodeB51%x2ppp4\""
param *.eNodeB33.x2App[3].client.connectAddress "\"eNodeB37%x2ppp5\""
param *.eNodeB33.x2App[4].client.connectAddress "\"eNodeB42%x2ppp4\""
param *.eNodeB33.x2App[5].client.connectAddress "\"eNodeB53%x2ppp6\""
param *.eNodeB33.x2App[6].client.connectAddress "\"eNodeB56%x2ppp2\""
param *.eNodeB33.x2App[7].client.connectAddress "\"eNodeB45%x2ppp7\""
param *.eNodeB33.x2App[8].client.connectAddress "\"eNodeB50%x2ppp5\""
param *.eNodeB33.x2App[9].client.connectAddress "\"eNodeB52%x2ppp7\""
param *.eNodeB34.numX2Apps 17
param *.eNodeB34.x2App[0].client.connectAddress "\"eNodeB5%x2ppp8\""
param *.eNodeB34.x2App[10].client.connectAddress "\"eNodeB29%x2ppp6\""
param *.eNodeB34.x2App[11].client.connectAddress "\"eNodeB37%x2ppp6\""
param *.eNodeB34.x2App[12].client.connectAddress "\"eNodeB41%x2ppp7\""
param *.eNodeB34.x2App[13].client.connectAddress "\"eNodeB50%x2ppp6\""
param *.eNodeB34.x2App[14].client.connectAddress "\"eNodeB51%x2ppp5\""
param *.eNodeB34.x2App[15].client.connectAddress "\"eNodeB58%x2ppp7\""
param *.eNodeB34.x2App[16].client.connectAddress "\"eNodeB66%x2ppp8\""
param *.eNodeB34.x2App[1].client.connectAddress "\"eNodeB6%x2ppp6\""
param *.eNodeB34.x2App[2].client.connectAddress "\"eNodeB9%x2ppp7\""
param *.eNodeB34.x2App[3].client.connectAddress "\"eNodeB25%x2ppp5\""
param *.eNodeB34.x2App[4].client.connectAddress "\"eNodeB27%x2ppp6\""
param *.eNodeB34.x2App[5].client.connectAddress "\"eNodeB53%x2ppp7\""
param *.eNodeB34.x2App[6].client.connectAddress "\"eNodeB45%x2ppp8\""
param *.eNodeB34.x2App[7].client.connectAddress "\"eNodeB52%x2ppp8\""
param *.eNodeB34.x2App[8].client.connectAddress "\"eNodeB2%x2ppp10\""
param *.eNodeB34.x2App[9].client.connectAddress "\"eNodeB14%x2ppp6\""
param *.eNodeB35.numX2Apps 15
param *.eNodeB35.x2App[0].client.connectAddress "\"eNodeB8%x2ppp8\""
param *.eNodeB35.x2App[10].client.connectAddress "\"eNodeB66%x2ppp9\""
param *.eNodeB35.x2App[11].client.connectAddress "\"eNodeB7%x2ppp10\""
param *.eNodeB35.x2App[12].client.connectAddress "\"eNodeB10%x2ppp6\""
param *.eNodeB35.x2App[13].client.connectAddress "\"eNodeB13%x2ppp7\""
param *.eNodeB35.x2App[14].client.connectAddress "\"eNodeB18%x2ppp2\""
param *.eNodeB35.x2App[1].client.connectAddress "\"eNodeB9%x2ppp8\""
param *.eNodeB35.x2App[2].client.connectAddress "\"eNodeB19%x2ppp4\""
param *.eNodeB35.x2App[3].client.connectAddress "\"eNodeB31%x2ppp8\""
param *.eNodeB35.x2App[4].client.connectAddress "\"eNodeB63%x2ppp7\""
param *.eNodeB35.x2App[5].client.connectAddress "\"eNodeB47%x2ppp9\""
param *.eNodeB35.x2App[6].client.connectAddress "\"eNodeB48%x2ppp3\""
param *.eNodeB35.x2App[7].client.connectAddress "\"eNodeB57%x2ppp7\""
param *.eNodeB35.x2App[8].client.connectAddress "\"eNodeB58%x2ppp8\""
param *.eNodeB35.x2App[9].client.connectAddress "\"eNodeB65%x2ppp7\""
param *.eNodeB36.numX2Apps 6
param *.eNodeB36.x2App[0].client.connectAddress "\"eNodeB12%x2ppp3\""
param *.eNodeB36.x2App[1].client.connectAddress "\"eNodeB21%x2ppp2\""
param *.eNodeB36.x2App[2].client.connectAddress "\"eNodeB23%x2ppp6\""
param *.eNodeB36.x2App[3].client.connectAddress "\"eNodeB38%x2ppp6\""
param *.eNodeB36.x2App[4].client.connectAddress "\"eNodeB62%x2ppp4\""
param *.eNodeB36.x2App[5].client.connectAddress "\"eNodeB44%x2ppp6\""
param *.eNodeB37.numX2Apps 14
param *.eNodeB37.x2App[0].client.connectAddress "\"eNodeB6%x2ppp7\""
param *.eNodeB37.x2App[10].client.connectAddress "\"eNodeB34%x2ppp8\""
param *.eNodeB37.x2App[11].client.connectAddress "\"eNodeB43%x2ppp5\""
param *.eNodeB37.x2App[12].client.connectAddress "\"eNodeB53%x2ppp8\""
param *.eNodeB37.x2App[13].client.connectAddress "\"eNodeB66%x2ppp10\""
param *.eNodeB37.x2App[1].client.connectAddress "\"eNodeB33%x2ppp2\""
param *.eNodeB37.x2App[2].client.connectAddress "\"eNodeB42%x2ppp5\""
param *.eNodeB37.x2App[3].client.connectAddress "\"eNodeB45%x2ppp9\""
param *.eNodeB37.x2App[4].client.connectAddress "\"eNodeB41%x2ppp8\""
param *.eNodeB37.x2App[5].client.connectAddress "\"eNodeB50%x2ppp7\""
param *.eNodeB37.x2App[6].client.connectAddress "\"eNodeB1%x2ppp5\""
param *.eNodeB37.x2App[7].client.connectAddress "\"eNodeB14%x2ppp7\""
param *.eNodeB37.x2App[8].client.connectAddress "\"eNodeB22%x2ppp4\""
param *.eNodeB37.x2App[9].client.connectAddress "\"eNodeB27%x2ppp7\""
param *.eNodeB38.numX2Apps 9
param *.eNodeB38.x2App[0].client.connectAddress "\"eNodeB12%x2ppp4\""
param *.eNodeB38.x2App[1].client.connectAddress "\"eNodeB23%x2ppp7\""
param *.eNodeB38.x2App[2].client.connectAddress "\"eNodeB30%x2ppp6\""
param *.eNodeB38.x2App[3].client.connectAddress "\"eNodeB36%x2ppp3\""
param *.eNodeB38.x2App[4].client.connectAddress "\"eNodeB44%x2ppp7\""
param *.eNodeB38.x2App[5].client.connectAddress "\"eNodeB62%x2ppp5\""
param *.eNodeB38.x2App[6].client.connectAddress "\"eNodeB3%x2ppp3\""
param *.eNodeB38.x2App[7].client.connectAddress "\"eNodeB21%x2ppp3\""
param *.eNodeB38.x2App[8].client.connectAddress "\"eNodeB32%x2ppp7\""
param *.eNodeB39.numX2Apps 8
param *.eNodeB39.x2App[0].client.connectAddress "\"eNodeB11%x2ppp4\""
param *.eNodeB39.x2App[1].client.connectAddress "\"eNodeB18%x2ppp3\""
param *.eNodeB39.x2App[2].client.connectAddress "\"eNodeB24%x2ppp2\""
param *.eNodeB39.x2App[3].client.connectAddress "\"eNodeB26%x2ppp0\""
param *.eNodeB39.x2App[4].client.connectAddress "\"eNodeB40%x2ppp5\""
param *.eNodeB39.x2App[5].client.connectAddress "\"eNodeB59%x2ppp5\""
param *.eNodeB39.x2App[6].client.connectAddress "\"eNodeB65%x2ppp8\""
param *.eNodeB39.x2App[7].client.connectAddress "\"eNodeB61%x2ppp2\""
param *.eNodeB4.numX2Apps 5
param *.eNodeB4.x2App[0].client.connectAddress "\"eNodeB17%x2ppp0\""
param *.eNodeB4.x2App[1].client.connectAddress "\"eNodeB20%x2ppp0\""
param *.eNodeB4.x2App[2].client.connectAddress "\"eNodeB55%x2ppp1\""
param *.eNodeB4.x2App[3].client.connectAddress "\"eNodeB56%x2ppp0\""
param *.eNodeB4.x2App[4].client.connectAddress "\"eNodeB49%x2ppp0\""
param *.eNodeB40.numX2Apps 10
param *.eNodeB40.x2App[0].client.connectAddress "\"eNodeB11%x2ppp5\""
param *.eNodeB40.x2App[1].client.connectAddress "\"eNodeB18%x2ppp4\""
param *.eNodeB40.x2App[2].client.connectAddress "\"eNodeB19%x2ppp5\""
param *.eNodeB40.x2App[3].client.connectAddress "\"eNodeB39%x2ppp4\""
param *.eNodeB40.x2App[4].client.connectAddress "\"eNodeB54%x2ppp6\""
param *.eNodeB40.x2App[5].client.connectAddress "\"eNodeB58%x2ppp9\""
param *.eNodeB40.x2App[6].client.connectAddress "\"eNodeB66%x2ppp11\""
param *.eNodeB40.x2App[7].client.connectAddress "\"eNodeB14%x2ppp8\""
param *.eNodeB40.x2App[8].client.connectAddress "\"eNodeB22%x2ppp5\""
param *.eNodeB40.x2App[9].client.connectAddress "\"eNodeB48%x2ppp4\""
param *.eNodeB41.numX2Apps 16
param *.eNodeB41.x2App[0].client.connectAddress "\"eNodeB1%x2ppp6\""
param *.eNodeB41.x2App[10].client.connectAddress "\"eNodeB9%x2ppp9\""
param *.eNodeB41.x2App[11].client.connectAddress "\"eNodeB11%x2ppp6\""
param *.eNodeB41.x2App[12].client.connectAddress "\"eNodeB34%x2ppp9\""
param *.eNodeB41.x2App[13].client.connectAddress "\"eNodeB42%x2ppp6\""
param *.eNodeB41.x2App[14].client.connectAddress "\"eNodeB43%x2ppp6\""
param *.eNodeB41.x2App[15].client.connectAddress "\"eNodeB54%x2ppp7\""
param *.eNodeB41.x2App[1].client.connectAddress "\"eNodeB14%x2ppp9\""
param *.eNodeB41.x2App[2].client.connectAddress "\"eNodeB22%x2ppp6\""
param *.eNodeB41.x2App[3].client.connectAddress "\"eNodeB27%x2ppp8\""
param *.eNodeB41.x2App[4].client.connectAddress "\"eNodeB37%x2ppp7\""
param *.eNodeB41.x2App[5].client.connectAddress "\"eNodeB50%x2ppp8\""
param *.eNodeB41.x2App[6].client.connectAddress "\"eNodeB45%x2ppp10\""
param *.eNodeB41.x2App[7].client.connectAddress "\"eNodeB58%x2ppp10\""
param *.eNodeB41.x2App[8].client.connectAddress "\"eNodeB66%x2ppp12\""
param *.eNodeB41.x2App[9].client.connectAddress "\"eNodeB6%x2ppp8\""
param *.eNodeB42.numX2Apps 11
param *.eNodeB42.x2App[0].client.connectAddress "\"eNodeB6%x2ppp9\""
param *.eNodeB42.x2App[10].client.connectAddress "\"eNodeB66%x2ppp13\""
param *.eNodeB42.x2App[1].client.connectAddress "\"eNodeB33%x2ppp3\""
param *.eNodeB42.x2App[2].client.connectAddress "\"eNodeB37%x2ppp8\""
param *.eNodeB42.x2App[3].client.connectAddress "\"eNodeB50%x2ppp9\""
param *.eNodeB42.x2App[4].client.connectAddress "\"eNodeB43%x2ppp7\""
param *.eNodeB42.x2App[5].client.connectAddress "\"eNodeB1%x2ppp7\""
param *.eNodeB42.x2App[6].client.connectAddress "\"eNodeB14%x2ppp10\""
param *.eNodeB42.x2App[7].client.connectAddress "\"eNodeB22%x2ppp7\""
param *.eNodeB42.x2App[8].client.connectAddress "\"eNodeB41%x2ppp9\""
param *.eNodeB42.x2App[9].client.connectAddress "\"eNodeB45%x2ppp11\""
param *.eNodeB43.numX2Apps 12
param *.eNodeB43.x2App[0].client.connectAddress "\"eNodeB1%x2ppp8\""
param *.eNodeB43.x2App[10].client.connectAddress "\"eNodeB54%x2ppp8\""
param *.eNodeB43.x2App[11].client.connectAddress "\"eNodeB66%x2ppp14\""
param *.eNodeB43.x2App[1].client.connectAddress "\"eNodeB11%x2ppp7\""
param *.eNodeB43.x2App[2].client.connectAddress "\"eNodeB22%x2ppp8\""
param *.eNodeB43.x2App[3].client.connectAddress "\"eNodeB42%x2ppp7\""
param *.eNodeB43.x2App[4].client.connectAddress "\"eNodeB50%x2ppp10\""
param *.eNodeB43.x2App[5].client.connectAddress "\"eNodeB6%x2ppp10\""
param *.eNodeB43.x2App[6].client.connectAddress "\"eNodeB14%x2ppp11\""
param *.eNodeB43.x2App[7].client.connectAddress "\"eNodeB37%x2ppp9\""
param *.eNodeB43.x2App[8].client.connectAddress "\"eNodeB41%x2ppp10\""
param *.eNodeB43.x2App[9].client.connectAddress "\"eNodeB45%x2ppp12\""
param *.eNodeB44.numX2Apps 9
param *.eNodeB44.x2App[0].client.connectAddress "\"eNodeB7%x2ppp11\""
param *.eNodeB44.x2App[1].client.connectAddress "\"eNodeB23%x2ppp8\""
param *.eNodeB44.x2App[2].client.connectAddress "\"eNodeB30%x2ppp7\""
param *.eNodeB44.x2App[3].client.connectAddress "\"eNodeB38%x2ppp7\""
param *.eNodeB44.x2App[4].client.connectAddress "\"eNodeB62%x2ppp6\""
param *.eNodeB44.x2App[5].client.connectAddress "\"eNodeB3%x2ppp4\""
param *.eNodeB44.x2App[6].client.connectAddress "\"eNodeB12%x2ppp5\""
param *.eNodeB44.x2App[7].client.connectAddress "\"eNodeB32%x2ppp8\""
param *.eNodeB44.x2App[8].client.connectAddress "\"eNodeB36%x2ppp4\""
param *.eNodeB45.numX2Apps 19
param *.eNodeB45.x2App[0].client.connectAddress "\"eNodeB6%x2ppp11\""
param *.eNodeB45.x2App[10].client.connectAddress "\"eNodeB1%x2ppp9\""
param *.eNodeB45.x2App[11].client.connectAddress "\"eNodeB9%x2ppp10\""
param *.eNodeB45.x2App[12].client.connectAddress "\"eNodeB22%x2ppp9\""
param *.eNodeB45.x2App[13].client.connectAddress "\"eNodeB29%x2ppp7\""
param *.eNodeB45.x2App[14].client.connectAddress "\"eNodeB33%x2ppp4\""
param *.eNodeB45.x2App[15].client.connectAddress "\"eNodeB42%x2ppp8\""
param *.eNodeB45.x2App[16].client.connectAddress "\"eNodeB43%x2ppp8\""
param *.eNodeB45.x2App[17].client.connectAddress "\"eNodeB51%x2ppp6\""
param *.eNodeB45.x2App[18].client.connectAddress "\"eNodeB52%x2ppp9\""
param *.eNodeB45.x2App[1].client.connectAddress "\"eNodeB14%x2ppp12\""
param *.eNodeB45.x2App[2].client.connectAddress "\"eNodeB27%x2ppp9\""
param *.eNodeB45.x2App[3].client.connectAddress "\"eNodeB34%x2ppp10\""
param *.eNodeB45.x2App[4].client.connectAddress "\"eNodeB37%x2ppp10\""
param *.eNodeB45.x2App[5].client.connectAddress "\"eNodeB41%x2ppp11\""
param *.eNodeB45.x2App[6].client.connectAddress "\"eNodeB50%x2ppp11\""
param *.eNodeB45.x2App[7].client.connectAddress "\"eNodeB53%x2ppp9\""
param *.eNodeB45.x2App[8].client.connectAddress "\"eNodeB58%x2ppp11\""
param *.eNodeB45.x2App[9].client.connectAddress "\"eNodeB66%x2ppp15\""
param *.eNodeB46.numX2Apps 10
param *.eNodeB46.x2App[0].client.connectAddress "\"eNodeB2%x2ppp11\""
param *.eNodeB46.x2App[1].client.connectAddress "\"eNodeB3%x2ppp5\""
param *.eNodeB46.x2App[2].client.connectAddress "\"eNodeB5%x2ppp9\""
param *.eNodeB46.x2App[3].client.connectAddress "\"eNodeB20%x2ppp3\""
param *.eNodeB46.x2App[4].client.connectAddress "\"eNodeB25%x2ppp6\""
param *.eNodeB46.x2App[5].client.connectAddress "\"eNodeB30%x2ppp8\""
param *.eNodeB46.x2App[6].client.connectAddress "\"eNodeB32%x2ppp9\""
param *.eNodeB46.x2App[7].client.connectAddress "\"eNodeB55%x2ppp8\""
param *.eNodeB46.x2App[8].client.connectAddress "\"eNodeB62%x2ppp7\""
param *.eNodeB46.x2App[9].client.connectAddress "\"eNodeB12%x2ppp6\""
param *.eNodeB47.numX2Apps 13
param *.eNodeB47.x2App[0].client.connectAddress "\"eNodeB2%x2ppp12\""
param *.eNodeB47.x2App[10].client.connectAddress "\"eNodeB31%x2ppp9\""
param *.eNodeB47.x2App[11].client.connectAddress "\"eNodeB57%x2ppp8\""
param *.eNodeB47.x2App[12].client.connectAddress "\"eNodeB63%x2ppp8\""
param *.eNodeB47.x2App[1].client.connectAddress "\"eNodeB5%x2ppp10\""
param *.eNodeB47.x2App[2].client.connectAddress "\"eNodeB7%x2ppp12\""
param *.eNodeB47.x2App[3].client.connectAddress "\"eNodeB8%x2ppp9\""
param *.eNodeB47.x2App[4].client.connectAddress "\"eNodeB9%x2ppp11\""
param *.eNodeB47.x2App[5].client.connectAddress "\"eNodeB10%x2ppp7\""
param *.eNodeB47.x2App[6].client.connectAddress "\"eNodeB35%x2ppp8\""
param *.eNodeB47.x2App[7].client.connectAddress "\"eNodeB64%x2ppp10\""
param *.eNodeB47.x2App[8].client.connectAddress "\"eNodeB13%x2ppp8\""
param *.eNodeB47.x2App[9].client.connectAddress "\"eNodeB28%x2ppp6\""
param *.eNodeB48.numX2Apps 10
param *.eNodeB48.x2App[0].client.connectAddress "\"eNodeB18%x2ppp5\""
param *.eNodeB48.x2App[1].client.connectAddress "\"eNodeB19%x2ppp6\""
param *.eNodeB48.x2App[2].client.connectAddress "\"eNodeB35%x2ppp9\""
param *.eNodeB48.x2App[3].client.connectAddress "\"eNodeB57%x2ppp9\""
param *.eNodeB48.x2App[4].client.connectAddress "\"eNodeB60%x2ppp7\""
param *.eNodeB48.x2App[5].client.connectAddress "\"eNodeB63%x2ppp9\""
param *.eNodeB48.x2App[6].client.connectAddress "\"eNodeB65%x2ppp9\""
param *.eNodeB48.x2App[7].client.connectAddress "\"eNodeB31%x2ppp10\""
param *.eNodeB48.x2App[8].client.connectAddress "\"eNodeB40%x2ppp6\""
param *.eNodeB48.x2App[9].client.connectAddress "\"eNodeB58%x2ppp12\""
param *.eNodeB49.numX2Apps 8
param *.eNodeB49.x2App[0].client.connectAddress "\"eNodeB17%x2ppp3\""
param *.eNodeB49.x2App[1].client.connectAddress "\"eNodeB20%x2ppp4\""
param *.eNodeB49.x2App[2].client.connectAddress "\"eNodeB25%x2ppp7\""
param *.eNodeB49.x2App[3].client.connectAddress "\"eNodeB29%x2ppp8\""
param *.eNodeB49.x2App[4].client.connectAddress "\"eNodeB51%x2ppp7\""
param *.eNodeB49.x2App[5].client.connectAddress "\"eNodeB52%x2ppp10\""
param *.eNodeB49.x2App[6].client.connectAddress "\"eNodeB56%x2ppp3\""
param *.eNodeB49.x2App[7].client.connectAddress "\"eNodeB4%x2ppp2\""
param *.eNodeB5.numX2Apps 13
param *.eNodeB5.x2App[0].client.connectAddress "\"eNodeB2%x2ppp0\""
param *.eNodeB5.x2App[10].client.connectAddress "\"eNodeB47%x2ppp1\""
param *.eNodeB5.x2App[11].client.connectAddress "\"eNodeB52%x2ppp0\""
param *.eNodeB5.x2App[12].client.connectAddress "\"eNodeB53%x2ppp0\""
param *.eNodeB5.x2App[1].client.connectAddress "\"eNodeB25%x2ppp1\""
param *.eNodeB5.x2App[2].client.connectAddress "\"eNodeB34%x2ppp1\""
param *.eNodeB5.x2App[3].client.connectAddress "\"eNodeB7%x2ppp1\""
param *.eNodeB5.x2App[4].client.connectAddress "\"eNodeB8%x2ppp1\""
param *.eNodeB5.x2App[5].client.connectAddress "\"eNodeB9%x2ppp1\""
param *.eNodeB5.x2App[6].client.connectAddress "\"eNodeB27%x2ppp1\""
param *.eNodeB5.x2App[7].client.connectAddress "\"eNodeB29%x2ppp0\""
param *.eNodeB5.x2App[8].client.connectAddress "\"eNodeB32%x2ppp2\""
param *.eNodeB5.x2App[9].client.connectAddress "\"eNodeB46%x2ppp2\""
param *.eNodeB50.numX2Apps 15
param *.eNodeB50.x2App[0].client.connectAddress "\"eNodeB1%x2ppp10\""
param *.eNodeB50.x2App[10].client.connectAddress "\"eNodeB33%x2ppp5\""
param *.eNodeB50.x2App[11].client.connectAddress "\"eNodeB34%x2ppp11\""
param *.eNodeB50.x2App[12].client.connectAddress "\"eNodeB54%x2ppp9\""
param *.eNodeB50.x2App[13].client.connectAddress "\"eNodeB58%x2ppp13\""
param *.eNodeB50.x2App[14].client.connectAddress "\"eNodeB66%x2ppp16\""
param *.eNodeB50.x2App[1].client.connectAddress "\"eNodeB27%x2ppp10\""
param *.eNodeB50.x2App[2].client.connectAddress "\"eNodeB37%x2ppp11\""
param *.eNodeB50.x2App[3].client.connectAddress "\"eNodeB41%x2ppp12\""
param *.eNodeB50.x2App[4].client.connectAddress "\"eNodeB42%x2ppp9\""
param *.eNodeB50.x2App[5].client.connectAddress "\"eNodeB43%x2ppp9\""
param *.eNodeB50.x2App[6].client.connectAddress "\"eNodeB45%x2ppp13\""
param *.eNodeB50.x2App[7].client.connectAddress "\"eNodeB6%x2ppp12\""
param *.eNodeB50.x2App[8].client.connectAddress "\"eNodeB14%x2ppp13\""
param *.eNodeB50.x2App[9].client.connectAddress "\"eNodeB22%x2ppp10\""
param *.eNodeB51.numX2Apps 11
param *.eNodeB51.x2App[0].client.connectAddress "\"eNodeB25%x2ppp8\""
param *.eNodeB51.x2App[10].client.connectAddress "\"eNodeB45%x2ppp14\""
param *.eNodeB51.x2App[1].client.connectAddress "\"eNodeB29%x2ppp9\""
param *.eNodeB51.x2App[2].client.connectAddress "\"eNodeB33%x2ppp6\""
param *.eNodeB51.x2App[3].client.connectAddress "\"eNodeB49%x2ppp5\""
param *.eNodeB51.x2App[4].client.connectAddress "\"eNodeB52%x2ppp11\""
param *.eNodeB51.x2App[5].client.connectAddress "\"eNodeB53%x2ppp10\""
param *.eNodeB51.x2App[6].client.connectAddress "\"eNodeB56%x2ppp4\""
param *.eNodeB51.x2App[7].client.connectAddress "\"eNodeB6%x2ppp13\""
param *.eNodeB51.x2App[8].client.connectAddress "\"eNodeB17%x2ppp4\""
param *.eNodeB51.x2App[9].client.connectAddress "\"eNodeB34%x2ppp12\""
param *.eNodeB52.numX2Apps 13
param *.eNodeB52.x2App[0].client.connectAddress "\"eNodeB5%x2ppp11\""
param *.eNodeB52.x2App[10].client.connectAddress "\"eNodeB27%x2ppp11\""
param *.eNodeB52.x2App[11].client.connectAddress "\"eNodeB33%x2ppp7\""
param *.eNodeB52.x2App[12].client.connectAddress "\"eNodeB45%x2ppp15\""
param *.eNodeB52.x2App[1].client.connectAddress "\"eNodeB6%x2ppp14\""
param *.eNodeB52.x2App[2].client.connectAddress "\"eNodeB20%x2ppp5\""
param *.eNodeB52.x2App[3].client.connectAddress "\"eNodeB25%x2ppp9\""
param *.eNodeB52.x2App[4].client.connectAddress "\"eNodeB29%x2ppp10\""
param *.eNodeB52.x2App[5].client.connectAddress "\"eNodeB34%x2ppp13\""
param *.eNodeB52.x2App[6].client.connectAddress "\"eNodeB49%x2ppp6\""
param *.eNodeB52.x2App[7].client.connectAddress "\"eNodeB51%x2ppp8\""
param *.eNodeB52.x2App[8].client.connectAddress "\"eNodeB53%x2ppp11\""
param *.eNodeB52.x2App[9].client.connectAddress "\"eNodeB17%x2ppp5\""
param *.eNodeB53.numX2Apps 13
param *.eNodeB53.x2App[0].client.connectAddress "\"eNodeB5%x2ppp12\""
param *.eNodeB53.x2App[10].client.connectAddress "\"eNodeB9%x2ppp12\""
param *.eNodeB53.x2App[11].client.connectAddress "\"eNodeB37%x2ppp12\""
param *.eNodeB53.x2App[12].client.connectAddress "\"eNodeB58%x2ppp14\""
param *.eNodeB53.x2App[1].client.connectAddress "\"eNodeB6%x2ppp15\""
param *.eNodeB53.x2App[2].client.connectAddress "\"eNodeB25%x2ppp10\""
param *.eNodeB53.x2App[3].client.connectAddress "\"eNodeB27%x2ppp12\""
param *.eNodeB53.x2App[4].client.connectAddress "\"eNodeB29%x2ppp11\""
param *.eNodeB53.x2App[5].client.connectAddress "\"eNodeB33%x2ppp8\""
param *.eNodeB53.x2App[6].client.connectAddress "\"eNodeB34%x2ppp14\""
param *.eNodeB53.x2App[7].client.connectAddress "\"eNodeB45%x2ppp16\""
param *.eNodeB53.x2App[8].client.connectAddress "\"eNodeB51%x2ppp9\""
param *.eNodeB53.x2App[9].client.connectAddress "\"eNodeB52%x2ppp12\""
param *.eNodeB54.numX2Apps 12
param *.eNodeB54.x2App[0].client.connectAddress "\"eNodeB11%x2ppp8\""
param *.eNodeB54.x2App[10].client.connectAddress "\"eNodeB43%x2ppp10\""
param *.eNodeB54.x2App[11].client.connectAddress "\"eNodeB50%x2ppp12\""
param *.eNodeB54.x2App[1].client.connectAddress "\"eNodeB14%x2ppp14\""
param *.eNodeB54.x2App[2].client.connectAddress "\"eNodeB19%x2ppp7\""
param *.eNodeB54.x2App[3].client.connectAddress "\"eNodeB22%x2ppp11\""
param *.eNodeB54.x2App[4].client.connectAddress "\"eNodeB40%x2ppp7\""
param *.eNodeB54.x2App[5].client.connectAddress "\"eNodeB58%x2ppp15\""
param *.eNodeB54.x2App[6].client.connectAddress "\"eNodeB66%x2ppp17\""
param *.eNodeB54.x2App[7].client.connectAddress "\"eNodeB1%x2ppp11\""
param *.eNodeB54.x2App[8].client.connectAddress "\"eNodeB18%x2ppp6\""
param *.eNodeB54.x2App[9].client.connectAddress "\"eNodeB41%x2ppp13\""
param *.eNodeB55.numX2Apps 10
param *.eNodeB55.x2App[0].client.connectAddress "\"eNodeB3%x2ppp6\""
param *.eNodeB55.x2App[1].client.connectAddress "\"eNodeB4%x2ppp3\""
param *.eNodeB55.x2App[2].client.connectAddress "\"eNodeB12%x2ppp7\""
param *.eNodeB55.x2App[3].client.connectAddress "\"eNodeB20%x2ppp6\""
param *.eNodeB55.x2App[4].client.connectAddress "\"eNodeB25%x2ppp11\""
param *.eNodeB55.x2App[5].client.connectAddress "\"eNodeB46%x2ppp8\""
param *.eNodeB55.x2App[6].client.connectAddress "\"eNodeB17%x2ppp6\""
param *.eNodeB55.x2App[7].client.connectAddress "\"eNodeB30%x2ppp9\""
param *.eNodeB55.x2App[8].client.connectAddress "\"eNodeB32%x2ppp10\""
param *.eNodeB55.x2App[9].client.connectAddress "\"eNodeB62%x2ppp8\""
param *.eNodeB56.numX2Apps 5
param *.eNodeB56.x2App[0].client.connectAddress "\"eNodeB4%x2ppp4\""
param *.eNodeB56.x2App[1].client.connectAddress "\"eNodeB17%x2ppp7\""
param *.eNodeB56.x2App[2].client.connectAddress "\"eNodeB33%x2ppp9\""
param *.eNodeB56.x2App[3].client.connectAddress "\"eNodeB49%x2ppp7\""
param *.eNodeB56.x2App[4].client.connectAddress "\"eNodeB51%x2ppp10\""
param *.eNodeB57.numX2Apps 14
param *.eNodeB57.x2App[0].client.connectAddress "\"eNodeB10%x2ppp8\""
param *.eNodeB57.x2App[10].client.connectAddress "\"eNodeB7%x2ppp13\""
param *.eNodeB57.x2App[11].client.connectAddress "\"eNodeB8%x2ppp10\""
param *.eNodeB57.x2App[12].client.connectAddress "\"eNodeB31%x2ppp11\""
param *.eNodeB57.x2App[13].client.connectAddress "\"eNodeB47%x2ppp10\""
param *.eNodeB57.x2App[1].client.connectAddress "\"eNodeB13%x2ppp9\""
param *.eNodeB57.x2App[2].client.connectAddress "\"eNodeB15%x2ppp5\""
param *.eNodeB57.x2App[3].client.connectAddress "\"eNodeB28%x2ppp7\""
param *.eNodeB57.x2App[4].client.connectAddress "\"eNodeB35%x2ppp10\""
param *.eNodeB57.x2App[5].client.connectAddress "\"eNodeB48%x2ppp5\""
param *.eNodeB57.x2App[6].client.connectAddress "\"eNodeB63%x2ppp10\""
param *.eNodeB57.x2App[7].client.connectAddress "\"eNodeB60%x2ppp8\""
param *.eNodeB57.x2App[8].client.connectAddress "\"eNodeB64%x2ppp11\""
param *.eNodeB57.x2App[9].client.connectAddress "\"eNodeB65%x2ppp10\""
param *.eNodeB58.numX2Apps 17
param *.eNodeB58.x2App[0].client.connectAddress "\"eNodeB9%x2ppp13\""
param *.eNodeB58.x2App[10].client.connectAddress "\"eNodeB1%x2ppp12\""
param *.eNodeB58.x2App[11].client.connectAddress "\"eNodeB6%x2ppp16\""
param *.eNodeB58.x2App[12].client.connectAddress "\"eNodeB22%x2ppp12\""
param *.eNodeB58.x2App[13].client.connectAddress "\"eNodeB34%x2ppp15\""
param *.eNodeB58.x2App[14].client.connectAddress "\"eNodeB48%x2ppp6\""
param *.eNodeB58.x2App[15].client.connectAddress "\"eNodeB50%x2ppp13\""
param *.eNodeB58.x2App[16].client.connectAddress "\"eNodeB53%x2ppp12\""
param *.eNodeB58.x2App[1].client.connectAddress "\"eNodeB14%x2ppp15\""
param *.eNodeB58.x2App[2].client.connectAddress "\"eNodeB19%x2ppp8\""
param *.eNodeB58.x2App[3].client.connectAddress "\"eNodeB27%x2ppp13\""
param *.eNodeB58.x2App[4].client.connectAddress "\"eNodeB35%x2ppp11\""
param *.eNodeB58.x2App[5].client.connectAddress "\"eNodeB40%x2ppp8\""
param *.eNodeB58.x2App[6].client.connectAddress "\"eNodeB41%x2ppp14\""
param *.eNodeB58.x2App[7].client.connectAddress "\"eNodeB45%x2ppp17\""
param *.eNodeB58.x2App[8].client.connectAddress "\"eNodeB54%x2ppp10\""
param *.eNodeB58.x2App[9].client.connectAddress "\"eNodeB66%x2ppp18\""
param *.eNodeB59.numX2Apps 10
param *.eNodeB59.x2App[0].client.connectAddress "\"eNodeB15%x2ppp6\""
param *.eNodeB59.x2App[1].client.connectAddress "\"eNodeB16%x2ppp4\""
param *.eNodeB59.x2App[2].client.connectAddress "\"eNodeB24%x2ppp3\""
param *.eNodeB59.x2App[3].client.connectAddress "\"eNodeB26%x2ppp1\""
param *.eNodeB59.x2App[4].client.connectAddress "\"eNodeB39%x2ppp5\""
param *.eNodeB59.x2App[5].client.connectAddress "\"eNodeB61%x2ppp3\""
param *.eNodeB59.x2App[6].client.connectAddress "\"eNodeB28%x2ppp8\""
param *.eNodeB59.x2App[7].client.connectAddress "\"eNodeB60%x2ppp9\""
param *.eNodeB59.x2App[8].client.connectAddress "\"eNodeB65%x2ppp11\""
param *.eNodeB59.x2App[9].client.connectAddress "\"eNodeB64%x2ppp12\""
param *.eNodeB6.numX2Apps 18
param *.eNodeB6.x2App[0].client.connectAddress "\"eNodeB37%x2ppp1\""
param *.eNodeB6.x2App[10].client.connectAddress "\"eNodeB50%x2ppp1\""
param *.eNodeB6.x2App[11].client.connectAddress "\"eNodeB14%x2ppp1\""
param *.eNodeB6.x2App[12].client.connectAddress "\"eNodeB22%x2ppp1\""
param *.eNodeB6.x2App[13].client.connectAddress "\"eNodeB41%x2ppp1\""
param *.eNodeB6.x2App[14].client.connectAddress "\"eNodeB43%x2ppp1\""
param *.eNodeB6.x2App[15].client.connectAddress "\"eNodeB51%x2ppp0\""
param *.eNodeB6.x2App[16].client.connectAddress "\"eNodeB58%x2ppp1\""
param *.eNodeB6.x2App[17].client.connectAddress "\"eNodeB66%x2ppp1\""
param *.eNodeB6.x2App[1].client.connectAddress "\"eNodeB45%x2ppp1\""
param *.eNodeB6.x2App[2].client.connectAddress "\"eNodeB27%x2ppp2\""
param *.eNodeB6.x2App[3].client.connectAddress "\"eNodeB29%x2ppp1\""
param *.eNodeB6.x2App[4].client.connectAddress "\"eNodeB33%x2ppp0\""
param *.eNodeB6.x2App[5].client.connectAddress "\"eNodeB34%x2ppp2\""
param *.eNodeB6.x2App[6].client.connectAddress "\"eNodeB42%x2ppp1\""
param *.eNodeB6.x2App[7].client.connectAddress "\"eNodeB52%x2ppp1\""
param *.eNodeB6.x2App[8].client.connectAddress "\"eNodeB53%x2ppp1\""
param *.eNodeB6.x2App[9].client.connectAddress "\"eNodeB1%x2ppp0\""
param *.eNodeB60.numX2Apps 13
param *.eNodeB60.x2App[0].client.connectAddress "\"eNodeB15%x2ppp7\""
param *.eNodeB60.x2App[10].client.connectAddress "\"eNodeB59%x2ppp6\""
param *.eNodeB60.x2App[11].client.connectAddress "\"eNodeB63%x2ppp11\""
param *.eNodeB60.x2App[12].client.connectAddress "\"eNodeB64%x2ppp13\""
param *.eNodeB60.x2App[1].client.connectAddress "\"eNodeB24%x2ppp4\""
param *.eNodeB60.x2App[2].client.connectAddress "\"eNodeB28%x2ppp9\""
param *.eNodeB60.x2App[3].client.connectAddress "\"eNodeB48%x2ppp7\""
param *.eNodeB60.x2App[4].client.connectAddress "\"eNodeB57%x2ppp10\""
param *.eNodeB60.x2App[5].client.connectAddress "\"eNodeB65%x2ppp12\""
param *.eNodeB60.x2App[6].client.connectAddress "\"eNodeB8%x2ppp11\""
param *.eNodeB60.x2App[7].client.connectAddress "\"eNodeB10%x2ppp9\""
param *.eNodeB60.x2App[8].client.connectAddress "\"eNodeB13%x2ppp10\""
param *.eNodeB60.x2App[9].client.connectAddress "\"eNodeB31%x2ppp12\""
param *.eNodeB61.numX2Apps 4
param *.eNodeB61.x2App[0].client.connectAddress "\"eNodeB16%x2ppp5\""
param *.eNodeB61.x2App[1].client.connectAddress "\"eNodeB26%x2ppp2\""
param *.eNodeB61.x2App[2].client.connectAddress "\"eNodeB39%x2ppp6\""
param *.eNodeB61.x2App[3].client.connectAddress "\"eNodeB59%x2ppp7\""
param *.eNodeB62.numX2Apps 9
param *.eNodeB62.x2App[0].client.connectAddress "\"eNodeB3%x2ppp7\""
param *.eNodeB62.x2App[1].client.connectAddress "\"eNodeB12%x2ppp8\""
param *.eNodeB62.x2App[2].client.connectAddress "\"eNodeB30%x2ppp10\""
param *.eNodeB62.x2App[3].client.connectAddress "\"eNodeB32%x2ppp11\""
param *.eNodeB62.x2App[4].client.connectAddress "\"eNodeB36%x2ppp5\""
param *.eNodeB62.x2App[5].client.connectAddress "\"eNodeB38%x2ppp8\""
param *.eNodeB62.x2App[6].client.connectAddress "\"eNodeB44%x2ppp8\""
param *.eNodeB62.x2App[7].client.connectAddress "\"eNodeB46%x2ppp9\""
param *.eNodeB62.x2App[8].client.connectAddress "\"eNodeB55%x2ppp9\""
param *.eNodeB63.numX2Apps 14
param *.eNodeB63.x2App[0].client.connectAddress "\"eNodeB10%x2ppp10\""
param *.eNodeB63.x2App[10].client.connectAddress "\"eNodeB28%x2ppp10\""
param *.eNodeB63.x2App[11].client.connectAddress "\"eNodeB47%x2ppp11\""
param *.eNodeB63.x2App[12].client.connectAddress "\"eNodeB60%x2ppp10\""
param *.eNodeB63.x2App[13].client.connectAddress "\"eNodeB64%x2ppp14\""
param *.eNodeB63.x2App[1].client.connectAddress "\"eNodeB13%x2ppp11\""
param *.eNodeB63.x2App[2].client.connectAddress "\"eNodeB19%x2ppp9\""
param *.eNodeB63.x2App[3].client.connectAddress "\"eNodeB31%x2ppp13\""
param *.eNodeB63.x2App[4].client.connectAddress "\"eNodeB35%x2ppp12\""
param *.eNodeB63.x2App[5].client.connectAddress "\"eNodeB48%x2ppp8\""
param *.eNodeB63.x2App[6].client.connectAddress "\"eNodeB57%x2ppp11\""
param *.eNodeB63.x2App[7].client.connectAddress "\"eNodeB65%x2ppp13\""
param *.eNodeB63.x2App[8].client.connectAddress "\"eNodeB7%x2ppp14\""
param *.eNodeB63.x2App[9].client.connectAddress "\"eNodeB8%x2ppp12\""
param *.eNodeB64.numX2Apps 16
param *.eNodeB64.x2App[0].client.connectAddress "\"eNodeB7%x2ppp15\""
param *.eNodeB64.x2App[10].client.connectAddress "\"eNodeB24%x2ppp5\""
param *.eNodeB64.x2App[11].client.connectAddress "\"eNodeB31%x2ppp14\""
param *.eNodeB64.x2App[12].client.connectAddress "\"eNodeB59%x2ppp8\""
param *.eNodeB64.x2App[13].client.connectAddress "\"eNodeB60%x2ppp11\""
param *.eNodeB64.x2App[14].client.connectAddress "\"eNodeB63%x2ppp12\""
param *.eNodeB64.x2App[15].client.connectAddress "\"eNodeB65%x2ppp14\""
param *.eNodeB64.x2App[1].client.connectAddress "\"eNodeB10%x2ppp11\""
param *.eNodeB64.x2App[2].client.connectAddress "\"eNodeB15%x2ppp8\""
param *.eNodeB64.x2App[3].client.connectAddress "\"eNodeB16%x2ppp6\""
param *.eNodeB64.x2App[4].client.connectAddress "\"eNodeB23%x2ppp9\""
param *.eNodeB64.x2App[5].client.connectAddress "\"eNodeB28%x2ppp11\""
param *.eNodeB64.x2App[6].client.connectAddress "\"eNodeB47%x2ppp12\""
param *.eNodeB64.x2App[7].client.connectAddress "\"eNodeB57%x2ppp12\""
param *.eNodeB64.x2App[8].client.connectAddress "\"eNodeB8%x2ppp13\""
param *.eNodeB64.x2App[9].client.connectAddress "\"eNodeB13%x2ppp12\""
param *.eNodeB65.numX2Apps 15
param *.eNodeB65.x2App[0].client.connectAddress "\"eNodeB18%x2ppp7\""
param *.eNodeB65.x2App[10].client.connectAddress "\"eNodeB15%x2ppp9\""
param *.eNodeB65.x2App[11].client.connectAddress "\"eNodeB28%x2ppp12\""
param *.eNodeB65.x2App[12].client.connectAddress "\"eNodeB31%x2ppp15\""
param *.eNodeB65.x2App[13].client.connectAddress "\"eNodeB59%x2ppp9\""
param *.eNodeB65.x2App[14].client.connectAddress "\"eNodeB64%x2ppp15\""
param *.eNodeB65.x2App[1].client.connectAddress "\"eNodeB24%x2ppp6\""
param *.eNodeB65.x2App[2].client.connectAddress "\"eNodeB35%x2ppp13\""
param *.eNodeB65.x2App[3].client.connectAddress "\"eNodeB39%x2ppp7\""
param *.eNodeB65.x2App[4].client.connectAddress "\"eNodeB48%x2ppp9\""
param *.eNodeB65.x2App[5].client.connectAddress "\"eNodeB57%x2ppp13\""
param *.eNodeB65.x2App[6].client.connectAddress "\"eNodeB60%x2ppp12\""
param *.eNodeB65.x2App[7].client.connectAddress "\"eNodeB63%x2ppp13\""
param *.eNodeB65.x2App[8].client.connectAddress "\"eNodeB10%x2ppp12\""
param *.eNodeB65.x2App[9].client.connectAddress "\"eNodeB13%x2ppp13\""
param *.eNodeB66.numX2Apps 19
param *.eNodeB66.x2App[0].client.connectAddress "\"eNodeB14%x2ppp16\""
param *.eNodeB66.x2App[10].client.connectAddress "\"eNodeB1%x2ppp13\""
param *.eNodeB66.x2App[11].client.connectAddress "\"eNodeB6%x2ppp17\""
param *.eNodeB66.x2App[12].client.connectAddress "\"eNodeB9%x2ppp14\""
param *.eNodeB66.x2App[13].client.connectAddress "\"eNodeB11%x2ppp9\""
param *.eNodeB66.x2App[14].client.connectAddress "\"eNodeB34%x2ppp16\""
param *.eNodeB66.x2App[15].client.connectAddress "\"eNodeB37%x2ppp13\""
param *.eNodeB66.x2App[16].client.connectAddress "\"eNodeB42%x2ppp10\""
param *.eNodeB66.x2App[17].client.connectAddress "\"eNodeB43%x2ppp11\""
param *.eNodeB66.x2App[18].client.connectAddress "\"eNodeB50%x2ppp14\""
param *.eNodeB66.x2App[1].client.connectAddress "\"eNodeB19%x2ppp10\""
param *.eNodeB66.x2App[2].client.connectAddress "\"eNodeB22%x2ppp13\""
param *.eNodeB66.x2App[3].client.connectAddress "\"eNodeB27%x2ppp14\""
param *.eNodeB66.x2App[4].client.connectAddress "\"eNodeB35%x2ppp14\""
param *.eNodeB66.x2App[5].client.connectAddress "\"eNodeB40%x2ppp9\""
param *.eNodeB66.x2App[6].client.connectAddress "\"eNodeB41%x2ppp15\""
param *.eNodeB66.x2App[7].client.connectAddress "\"eNodeB45%x2ppp18\""
param *.eNodeB66.x2App[8].client.connectAddress "\"eNodeB54%x2ppp11\""
param *.eNodeB66.x2App[9].client.connectAddress "\"eNodeB58%x2ppp16\""
param *.eNodeB7.numX2Apps 16
param *.eNodeB7.x2App[0].client.connectAddress "\"eNodeB2%x2ppp1\""
param *.eNodeB7.x2App[10].client.connectAddress "\"eNodeB8%x2ppp2\""
param *.eNodeB7.x2App[11].client.connectAddress "\"eNodeB13%x2ppp1\""
param *.eNodeB7.x2App[12].client.connectAddress "\"eNodeB31%x2ppp1\""
param *.eNodeB7.x2App[13].client.connectAddress "\"eNodeB35%x2ppp0\""
param *.eNodeB7.x2App[14].client.connectAddress "\"eNodeB57%x2ppp0\""
param *.eNodeB7.x2App[15].client.connectAddress "\"eNodeB63%x2ppp0\""
param *.eNodeB7.x2App[1].client.connectAddress "\"eNodeB5%x2ppp1\""
param *.eNodeB7.x2App[2].client.connectAddress "\"eNodeB16%x2ppp0\""
param *.eNodeB7.x2App[3].client.connectAddress "\"eNodeB23%x2ppp1\""
param *.eNodeB7.x2App[4].client.connectAddress "\"eNodeB44%x2ppp1\""
param *.eNodeB7.x2App[5].client.connectAddress "\"eNodeB47%x2ppp2\""
param *.eNodeB7.x2App[6].client.connectAddress "\"eNodeB10%x2ppp0\""
param *.eNodeB7.x2App[7].client.connectAddress "\"eNodeB30%x2ppp2\""
param *.eNodeB7.x2App[8].client.connectAddress "\"eNodeB32%x2ppp3\""
param *.eNodeB7.x2App[9].client.connectAddress "\"eNodeB64%x2ppp0\""
param *.eNodeB8.numX2Apps 14
param *.eNodeB8.x2App[0].client.connectAddress "\"eNodeB2%x2ppp2\""
param *.eNodeB8.x2App[10].client.connectAddress "\"eNodeB57%x2ppp1\""
param *.eNodeB8.x2App[11].client.connectAddress "\"eNodeB60%x2ppp0\""
param *.eNodeB8.x2App[12].client.connectAddress "\"eNodeB63%x2ppp1\""
param *.eNodeB8.x2App[13].client.connectAddress "\"eNodeB64%x2ppp1\""
param *.eNodeB8.x2App[1].client.connectAddress "\"eNodeB5%x2ppp2\""
param *.eNodeB8.x2App[2].client.connectAddress "\"eNodeB9%x2ppp2\""
param *.eNodeB8.x2App[3].client.connectAddress "\"eNodeB13%x2ppp2\""
param *.eNodeB8.x2App[4].client.connectAddress "\"eNodeB31%x2ppp2\""
param *.eNodeB8.x2App[5].client.connectAddress "\"eNodeB47%x2ppp3\""
param *.eNodeB8.x2App[6].client.connectAddress "\"eNodeB10%x2ppp1\""
param *.eNodeB8.x2App[7].client.connectAddress "\"eNodeB35%x2ppp1\""
param *.eNodeB8.x2App[8].client.connectAddress "\"eNodeB7%x2ppp2\""
param *.eNodeB8.x2App[9].client.connectAddress "\"eNodeB28%x2ppp0\""
param *.eNodeB9.numX2Apps 15
param *.eNodeB9.x2App[0].client.connectAddress "\"eNodeB2%x2ppp3\""
param *.eNodeB9.x2App[10].client.connectAddress "\"eNodeB14%x2ppp2\""
param *.eNodeB9.x2App[11].client.connectAddress "\"eNodeB41%x2ppp2\""
param *.eNodeB9.x2App[12].client.connectAddress "\"eNodeB45%x2ppp2\""
param *.eNodeB9.x2App[13].client.connectAddress "\"eNodeB53%x2ppp2\""
param *.eNodeB9.x2App[14].client.connectAddress "\"eNodeB66%x2ppp2\""
param *.eNodeB9.x2App[1].client.connectAddress "\"eNodeB5%x2ppp3\""
param *.eNodeB9.x2App[2].client.connectAddress "\"eNodeB8%x2ppp3\""
param *.eNodeB9.x2App[3].client.connectAddress "\"eNodeB27%x2ppp3\""
param *.eNodeB9.x2App[4].client.connectAddress "\"eNodeB34%x2ppp3\""
param *.eNodeB9.x2App[5].client.connectAddress "\"eNodeB58%x2ppp2\""
param *.eNodeB9.x2App[6].client.connectAddress "\"eNodeB19%x2ppp0\""
param *.eNodeB9.x2App[7].client.connectAddress "\"eNodeB31%x2ppp3\""
param *.eNodeB9.x2App[8].client.connectAddress "\"eNodeB35%x2ppp2\""
param *.eNodeB9.x2App[9].client.connectAddress "\"eNodeB47%x2ppp4\""
param *.obstacles.debug false
param *.playgroundSizeX 3000m
param *.playgroundSizeY 3000m
param *.playgroundSizeZ 50m
param *.server.numUdpApps 457
param *.server.udpApp[*].destAddress "\"car[\" + string(ancestorIndex(0)) + \"]\""
param *.server.udpApp[*].localPort "3000 + ancestorIndex(0)"
param *.server.udpApp[*].startingTime 0.05s
param *.server.udpApp[*].typename "\"VoIPSender\""
param *.veinsManager.launchConfig "xmldoc(\"erlangen.launchd.xml\")"
param *.veinsManager.moduleDisplayString "\"\""
param *.veinsManager.moduleName "\"car\""
param *.veinsManager.moduleType "\"lte.corenetwork.nodes.cars.Car\""
param *.veinsManager.updateInterval 0.1s

scalar ErlangenLTE.eNodeB1.x2App[0].client 	ums 	1452
scalar ErlangenLTE.eNodeB1.x2App[1].client 	ums 	1452
scalar ErlangenLTE.eNodeB1.x2App[2].client 	ums 	1452
scalar ErlangenLTE.eNodeB1.x2App[3].client 	ums 	1452
scalar ErlangenLTE.eNodeB1.x2App[4].client 	ums 	1452
scalar ErlangenLTE.eNodeB1.x2App[5].client 	ums 	1452
scalar ErlangenLTE.eNodeB1.x2App[6].client 	ums 	1452
scalar ErlangenLTE.eNodeB1.x2App[7].client 	ums 	1452
scalar ErlangenLTE.eNodeB1.x2App[8].client 	ums 	1452
scalar ErlangenLTE.eNodeB1.x2App[9].client 	ums 	1452
scalar ErlangenLTE.eNodeB1.x2App[10].client 	ums 	1452
scalar ErlangenLTE.eNodeB1.x2App[11].client 	ums 	1452
scalar ErlangenLTE.eNodeB1.x2App[12].client 	ums 	1452
scalar ErlangenLTE.eNodeB1.x2App[13].client 	ums 	1452
scalar ErlangenLTE.eNodeB2.x2App[0].client 	ums 	1452
scalar ErlangenLTE.eNodeB2.x2App[1].client 	ums 	1452
scalar ErlangenLTE.eNodeB2.x2App[2].client 	ums 	1452
scalar ErlangenLTE.eNodeB2.x2App[3].client 	ums 	1452
scalar ErlangenLTE.eNodeB2.x2App[4].client 	ums 	1452
scalar ErlangenLTE.eNodeB2.x2App[5].client 	ums 	1452
scalar ErlangenLTE.eNodeB2.x2App[6].client 	ums 	1452
scalar ErlangenLTE.eNodeB2.x2App[7].client 	ums 	1452
scalar ErlangenLTE.eNodeB2.x2App[8].client 	ums 	1452
scalar ErlangenLTE.eNodeB2.x2App[9].client 	ums 	1452
scalar ErlangenLTE.eNodeB2.x2App[10].client 	ums 	1452
scalar ErlangenLTE.eNodeB2.x2App[11].client 	ums 	1452
scalar ErlangenLTE.eNodeB2.x2App[12].client 	ums 	1452
scalar ErlangenLTE.eNodeB3.x2App[0].client 	ums 	1452
scalar ErlangenLTE.eNodeB3.x2App[1].client 	ums 	1452
scalar ErlangenLTE.eNodeB3.x2App[2].client 	ums 	1452
scalar ErlangenLTE.eNodeB3.x2App[3].client 	ums 	1452
scalar ErlangenLTE.eNodeB3.x2App[4].client 	ums 	1452
scalar ErlangenLTE.eNodeB3.x2App[5].client 	ums 	1452
scalar ErlangenLTE.eNodeB3.x2App[6].client 	ums 	1452
scalar ErlangenLTE.eNodeB3.x2App[7].client 	ums 	1452
scalar ErlangenLTE.eNodeB4.x2App[0].client 	ums 	1452
scalar ErlangenLTE.eNodeB4.x2App[1].client 	ums 	1452
scalar ErlangenLTE.eNodeB4.x2App[2].client 	ums 	1452
scalar ErlangenLTE.eNodeB4.x2App[3].client 	ums 	1452
scalar ErlangenLTE.eNodeB4.x2App[4].client 	ums 	1452
scalar ErlangenLTE.eNodeB5.x2App[0].client 	ums 	1452
scalar ErlangenLTE.eNodeB5.x2App[1].client 	ums 	1452
scalar ErlangenLTE.eNodeB5.x2App[2].client 	ums 	1452
scalar ErlangenLTE.eNodeB5.x2App[3].client 	ums 	1452
scalar ErlangenLTE.eNodeB5.x2App[4].client 	ums 	1452
scalar ErlangenLTE.eNodeB5.x2App[5].client 	ums 	1452
scalar ErlangenLTE.eNodeB5.x2App[6].client 	ums 	1452
scalar ErlangenLTE.eNodeB5.x2App[7].client 	ums 	1452
scalar ErlangenLTE.eNodeB5.x2App[8].client 	ums 	1452
scalar ErlangenLTE.eNodeB5.x2App[9].client 	ums 	1452
scalar ErlangenLTE.eNodeB5.x2App[10].client 	ums 	1452
scalar ErlangenLTE.eNodeB5.x2App[11].client 	ums 	1452
scalar ErlangenLTE.eNodeB5.x2App[12].client 	ums 	1452
scalar ErlangenLTE.eNodeB6.x2App[0].client 	ums 	1452
scalar ErlangenLTE.eNodeB6.x2App[1].client 	ums 	1452
scalar ErlangenLTE.eNodeB6.x2App[2].client 	ums 	1452
scalar ErlangenLTE.eNodeB6.x2App[3].client 	ums 	1452
scalar ErlangenLTE.eNodeB6.x2App[4].client 	ums 	1452
scalar ErlangenLTE.eNodeB6.x2App[5].client 	ums 	1452
scalar ErlangenLTE.eNodeB6.x2App[6].client 	ums 	1452
scalar ErlangenLTE.eNodeB6.x2App[7].client 	ums 	1452
scalar ErlangenLTE.eNodeB6.x2App[8].client 	ums 	1452
scalar ErlangenLTE.eNodeB6.x2App[9].client 	ums 	1452
scalar ErlangenLTE.eNodeB6.x2App[10].client 	ums 	1452
scalar ErlangenLTE.eNodeB6.x2App[11].client 	ums 	1452
scalar ErlangenLTE.eNodeB6.x2App[12].client 	ums 	1452
scalar ErlangenLTE.eNodeB6.x2App[13].client 	ums 	1452
scalar ErlangenLTE.eNodeB6.x2App[14].client 	ums 	1452
scalar ErlangenLTE.eNodeB6.x2App[15].client 	ums 	1452
scalar ErlangenLTE.eNodeB6.x2App[16].client 	ums 	1452
scalar ErlangenLTE.eNodeB6.x2App[17].client 	ums 	1452
scalar ErlangenLTE.eNodeB7.x2App[0].client 	ums 	1452
scalar ErlangenLTE.eNodeB7.x2App[1].client 	ums 	1452
scalar ErlangenLTE.eNodeB7.x2App[2].client 	ums 	1452
scalar ErlangenLTE.eNodeB7.x2App[3].client 	ums 	1452
scalar ErlangenLTE.eNodeB7.x2App[4].client 	ums 	1452
scalar ErlangenLTE.eNodeB7.x2App[5].client 	ums 	1452
scalar ErlangenLTE.eNodeB7.x2App[6].client 	ums 	1452
scalar ErlangenLTE.eNodeB7.x2App[7].client 	ums 	1452
scalar ErlangenLTE.eNodeB7.x2App[8].client 	ums 	1452
scalar ErlangenLTE.eNodeB7.x2App[9].client 	ums 	1452
scalar ErlangenLTE.eNodeB7.x2App[10].client 	ums 	1452
scalar ErlangenLTE.eNodeB7.x2App[11].client 	ums 	1452
scalar ErlangenLTE.eNodeB7.x2App[12].client 	ums 	1452
scalar ErlangenLTE.eNodeB7.x2App[13].client 	ums 	1452
scalar ErlangenLTE.eNodeB7.x2App[14].client 	ums 	1452
scalar ErlangenLTE.eNodeB7.x2App[15].client 	ums 	1452
scalar ErlangenLTE.eNodeB8.x2App[0].client 	ums 	1452
scalar ErlangenLTE.eNodeB8.x2App[1].client 	ums 	1452
scalar ErlangenLTE.eNodeB8.x2App[2].client 	ums 	1452
scalar ErlangenLTE.eNodeB8.x2App[3].client 	ums 	1452
scalar ErlangenLTE.eNodeB8.x2App[4].client 	ums 	1452
scalar ErlangenLTE.eNodeB8.x2App[5].client 	ums 	1452
scalar ErlangenLTE.eNodeB8.x2App[6].client 	ums 	1452
scalar ErlangenLTE.eNodeB8.x2App[7].client 	ums 	1452
scalar ErlangenLTE.eNodeB8.x2App[8].client 	ums 	1452
scalar ErlangenLTE.eNodeB8.x2App[9].client 	ums 	1452
scalar ErlangenLTE.eNodeB8.x2App[10].client 	ums 	1452
scalar ErlangenLTE.eNodeB8.x2App[11].client 	ums 	1452
scalar ErlangenLTE.eNodeB8.x2App[12].client 	ums 	1452
scalar ErlangenLTE.eNodeB8.x2App[13].client 	ums 	1452
scalar ErlangenLTE.eNodeB9.x2App[0].client 	ums 	1452
scalar ErlangenLTE.eNodeB9.x2App[1].client 	ums 	1452
scalar ErlangenLTE.eNodeB9.x2App[2].client 	ums 	1452
scalar ErlangenLTE.eNodeB9.x2App[3].client 	ums 	1452
scalar ErlangenLTE.eNodeB9.x2App[4].client 	ums 	1452
scalar ErlangenLTE.eNodeB9.x2App[5].client 	ums 	1452
scalar ErlangenLTE.eNodeB9.x2App[6].client 	ums 	1452
scalar ErlangenLTE.eNodeB9.x2App[7].client 	ums 	1452
scalar ErlangenLTE.eNodeB9.x2App[8].client 	ums 	1452
scalar ErlangenLTE.eNodeB9.x2App[9].client 	ums 	1452
scalar ErlangenLTE.eNodeB9.x2App[10].client 	ums 	1452
scalar ErlangenLTE.eNodeB9.x2App[11].client 	ums 	1452
scalar ErlangenLTE.eNodeB9.x2App[12].client 	ums 	1452
scalar ErlangenLTE.eNodeB9.x2App[13].client 	ums 	1452
scalar ErlangenLTE.eNodeB9.x2App[14].client 	ums 	1452
scalar ErlangenLTE.eNodeB10.x2App[0].client 	ums 	1452
scalar ErlangenLTE.eNodeB10.x2App[1].client 	ums 	1452
scalar ErlangenLTE.eNodeB10.x2App[2].client 	ums 	1452
scalar ErlangenLTE.eNodeB10.x2App[3].client 	ums 	1452
scalar ErlangenLTE.eNodeB10.x2App[4].client 	ums 	1452
scalar ErlangenLTE.eNodeB10.x2App[5].client 	ums 	1452
scalar ErlangenLTE.eNodeB10.x2App[6].client 	ums 	1452
scalar ErlangenLTE.eNodeB10.x2App[7].client 	ums 	1452
scalar ErlangenLTE.eNodeB10.x2App[8].client 	ums 	1452
scalar ErlangenLTE.eNodeB10.x2App[9].client 	ums 	1452
scalar ErlangenLTE.eNodeB10.x2App[10].client 	ums 	1452
scalar ErlangenLTE.eNodeB10.x2App[11].client 	ums 	1452
scalar ErlangenLTE.eNodeB10.x2App[12].client 	ums 	1452
scalar ErlangenLTE.eNodeB11.x2App[0].client 	ums 	1452
scalar ErlangenLTE.eNodeB11.x2App[1].client 	ums 	1452
scalar ErlangenLTE.eNodeB11.x2App[2].client 	ums 	1452
scalar ErlangenLTE.eNodeB11.x2App[3].client 	ums 	1452
scalar ErlangenLTE.eNodeB11.x2App[4].client 	ums 	1452
scalar ErlangenLTE.eNodeB11.x2App[5].client 	ums 	1452
scalar ErlangenLTE.eNodeB11.x2App[6].client 	ums 	1452
scalar ErlangenLTE.eNodeB11.x2App[7].client 	ums 	1452
scalar ErlangenLTE.eNodeB11.x2App[8].client 	ums 	1452
scalar ErlangenLTE.eNodeB11.x2App[9].client 	ums 	1452
scalar ErlangenLTE.eNodeB12.x2App[0].client 	ums 	1452
scalar ErlangenLTE.eNodeB12.x2App[1].client 	ums 	1452
scalar ErlangenLTE.eNodeB12.x2App[2].client 	ums 	1452
scalar ErlangenLTE.eNodeB12.x2App[3].client 	ums 	1452
scalar ErlangenLTE.eNodeB12.x2App[4].client 	ums 	1452
scalar ErlangenLTE.eNodeB12.x2App[5].client 	ums 	1452
scalar ErlangenLTE.eNodeB12.x2App[6].client 	ums 	1452
scalar ErlangenLTE.eNodeB12.x2App[7].client 	ums 	1452
scalar ErlangenLTE.eNodeB12.x2App[8].client 	ums 	1452
scalar ErlangenLTE.eNodeB13.x2App[0].client 	ums 	1452
scalar ErlangenLTE.eNodeB13.x2App[1].client 	ums 	1452
scalar ErlangenLTE.eNodeB13.x2App[2].client 	ums 	1452
scalar ErlangenLTE.eNodeB13.x2App[3].client 	ums 	1452
scalar ErlangenLTE.eNodeB13.x2App[4].client 	ums 	1452
scalar ErlangenLTE.eNodeB13.x2App[5].client 	ums 	1452
scalar ErlangenLTE.eNodeB13.x2App[6].client 	ums 	1452
scalar ErlangenLTE.eNodeB13.x2App[7].client 	ums 	1452
scalar ErlangenLTE.eNodeB13.x2App[8].client 	ums 	1452
scalar ErlangenLTE.eNodeB13.x2App[9].client 	ums 	1452
scalar ErlangenLTE.eNodeB13.x2App[10].client 	ums 	1452
scalar ErlangenLTE.eNodeB13.x2App[11].client 	ums 	1452
scalar ErlangenLTE.eNodeB13.x2App[12].client 	ums 	1452
scalar ErlangenLTE.eNodeB13.x2App[13].client 	ums 	1452
scalar ErlangenLTE.eNodeB14.x2App[0].client 	ums 	1452
scalar ErlangenLTE.eNodeB14.x2App[1].client 	ums 	1452
scalar ErlangenLTE.eNodeB14.x2App[2].client 	ums 	1452
scalar ErlangenLTE.eNodeB14.x2App[3].client 	ums 	1452
scalar ErlangenLTE.eNodeB14.x2App[4].client 	ums 	1452
scalar ErlangenLTE.eNodeB14.x2App[5].client 	ums 	1452
scalar ErlangenLTE.eNodeB14.x2App[6].client 	ums 	1452
scalar ErlangenLTE.eNodeB14.x2App[7].client 	ums 	1452
scalar ErlangenLTE.eNodeB14.x2App[8].client 	ums 	1452
scalar ErlangenLTE.eNodeB14.x2App[9].client 	ums 	1452
scalar ErlangenLTE.eNodeB14.x2App[10].client 	ums 	1452
scalar ErlangenLTE.eNodeB14.x2App[11].client 	ums 	1452
scalar ErlangenLTE.eNodeB14.x2App[12].client 	ums 	1452
scalar ErlangenLTE.eNodeB14.x2App[13].client 	ums 	1452
scalar ErlangenLTE.eNodeB14.x2App[14].client 	ums 	1452
scalar ErlangenLTE.eNodeB14.x2App[15].client 	ums 	1452
scalar ErlangenLTE.eNodeB14.x2App[16].client 	ums 	1452
scalar ErlangenLTE.eNodeB15.x2App[0].client 	ums 	1452
scalar ErlangenLTE.eNodeB15.x2App[1].client 	ums 	1452
scalar ErlangenLTE.eNodeB15.x2App[2].client 	ums 	1452
scalar ErlangenLTE.eNodeB15.x2App[3].client 	ums 	1452
scalar ErlangenLTE.eNodeB15.x2App[4].client 	ums 	1452
scalar ErlangenLTE.eNodeB15.x2App[5].client 	ums 	1452
scalar ErlangenLTE.eNodeB15.x2App[6].client 	ums 	1452
scalar ErlangenLTE.eNodeB15.x2App[7].client 	ums 	1452
scalar ErlangenLTE.eNodeB15.x2App[8].client 	ums 	1452
scalar ErlangenLTE.eNodeB15.x2App[9].client 	ums 	1452
scalar ErlangenLTE.eNodeB16.x2App[0].client 	ums 	1452
scalar ErlangenLTE.eNodeB16.x2App[1].client 	ums 	1452
scalar ErlangenLTE.eNodeB16.x2App[2].client 	ums 	1452
scalar ErlangenLTE.eNodeB16.x2App[3].client 	ums 	1452
scalar ErlangenLTE.eNodeB16.x2App[4].client 	ums 	1452
scalar ErlangenLTE.eNodeB16.x2App[5].client 	ums 	1452
scalar ErlangenLTE.eNodeB16.x2App[6].client 	ums 	1452
scalar ErlangenLTE.eNodeB17.x2App[0].client 	ums 	1452
scalar ErlangenLTE.eNodeB17.x2App[1].client 	ums 	1452
scalar ErlangenLTE.eNodeB17.x2App[2].client 	ums 	1452
scalar ErlangenLTE.eNodeB17.x2App[3].client 	ums 	1452
scalar ErlangenLTE.eNodeB17.x2App[4].client 	ums 	1452
scalar ErlangenLTE.eNodeB17.x2App[5].client 	ums 	1452
scalar ErlangenLTE.eNodeB17.x2App[6].client 	ums 	1452
scalar ErlangenLTE.eNodeB17.x2App[7].client 	ums 	1452
scalar ErlangenLTE.eNodeB18.x2App[0].client 	ums 	1452
scalar ErlangenLTE.eNodeB18.x2App[1].client 	ums 	1452
scalar ErlangenLTE.eNodeB18.x2App[2].client 	ums 	1452
scalar ErlangenLTE.eNodeB18.x2App[3].client 	ums 	1452
scalar ErlangenLTE.eNodeB18.x2App[4].client 	ums 	1452
scalar ErlangenLTE.eNodeB18.x2App[5].client 	ums 	1452
scalar ErlangenLTE.eNodeB18.x2App[6].client 	ums 	1452
scalar ErlangenLTE.eNodeB18.x2App[7].client 	ums 	1452
scalar ErlangenLTE.eNodeB19.x2App[0].client 	ums 	1452
scalar ErlangenLTE.eNodeB19.x2App[1].client 	ums 	1452
scalar ErlangenLTE.eNodeB19.x2App[2].client 	ums 	1452
scalar ErlangenLTE.eNodeB19.x2App[3].client 	ums 	1452
scalar ErlangenLTE.eNodeB19.x2App[4].client 	ums 	1452
scalar ErlangenLTE.eNodeB19.x2App[5].client 	ums 	1452
scalar ErlangenLTE.eNodeB19.x2App[6].client 	ums 	1452
scalar ErlangenLTE.eNodeB19.x2App[7].client 	ums 	1452
scalar ErlangenLTE.eNodeB19.x2App[8].client 	ums 	1452
scalar ErlangenLTE.eNodeB19.x2App[9].client 	ums 	1452
scalar ErlangenLTE.eNodeB19.x2App[10].client 	ums 	1452
scalar ErlangenLTE.eNodeB20.x2App[0].client 	ums 	1452
scalar ErlangenLTE.eNodeB20.x2App[1].client 	ums 	1452
scalar ErlangenLTE.eNodeB20.x2App[2].client 	ums 	1452
scalar ErlangenLTE.eNodeB20.x2App[3].client 	ums 	1452
scalar ErlangenLTE.eNodeB20.x2App[4].client 	ums 	1452
scalar ErlangenLTE.eNodeB20.x2App[5].client 	ums 	1452
scalar ErlangenLTE.eNodeB20.x2App[6].client 	ums 	1452
scalar ErlangenLTE.eNodeB21.x2App[0].client 	ums 	1452
scalar ErlangenLTE.eNodeB21.x2App[1].client 	ums 	1452
scalar ErlangenLTE.eNodeB21.x2App[2].client 	ums 	1452
scalar ErlangenLTE.eNodeB21.x2App[3].client 	ums 	1452
scalar ErlangenLTE.eNodeB22.x2App[0].client 	ums 	1452
scalar ErlangenLTE.eNodeB22.x2App[1].client 	ums 	1452
scalar ErlangenLTE.eNodeB22.x2App[2].client 	ums 	1452
scalar ErlangenLTE.eNodeB22.x2App[3].client 	ums 	1452
scalar ErlangenLTE.eNodeB22.x2App[4].client 	ums 	1452
scalar ErlangenLTE.eNodeB22.x2App[5].client 	ums 	1452
scalar ErlangenLTE.eNodeB22.x2App[6].client 	ums 	1452
scalar ErlangenLTE.eNodeB22.x2App[7].client 	ums 	1452
scalar ErlangenLTE.eNodeB22.x2App[8].client 	ums 	1452
scalar ErlangenLTE.eNodeB22.x2App[9].client 	ums 	1452
scalar ErlangenLTE.eNodeB22.x2App[10].client 	ums 	1452
scalar ErlangenLTE.eNodeB22.x2App[11].client 	ums 	1452
scalar ErlangenLTE.eNodeB22.x2App[12].client 	ums 	1452
scalar ErlangenLTE.eNodeB22.x2App[13].client 	ums 	1452
scalar ErlangenLTE.eNodeB23.x2App[0].client 	ums 	1452
scalar ErlangenLTE.eNodeB23.x2App[1].client 	ums 	1452
scalar ErlangenLTE.eNodeB23.x2App[2].client 	ums 	1452
scalar ErlangenLTE.eNodeB23.x2App[3].client 	ums 	1452
scalar ErlangenLTE.eNodeB23.x2App[4].client 	ums 	1452
scalar ErlangenLTE.eNodeB23.x2App[5].client 	ums 	1452
scalar ErlangenLTE.eNodeB23.x2App[6].client 	ums 	1452
scalar ErlangenLTE.eNodeB23.x2App[7].client 	ums 	1452
scalar ErlangenLTE.eNodeB23.x2App[8].client 	ums 	1452
scalar ErlangenLTE.eNodeB23.x2App[9].client 	ums 	1452
scalar ErlangenLTE.eNodeB24.x2App[0].client 	ums 	1452
scalar ErlangenLTE.eNodeB24.x2App[1].client 	ums 	1452
scalar ErlangenLTE.eNodeB24.x2App[2].client 	ums 	1452
scalar ErlangenLTE.eNodeB24.x2App[3].client 	ums 	1452
scalar ErlangenLTE.eNodeB24.x2App[4].client 	ums 	1452
scalar ErlangenLTE.eNodeB24.x2App[5].client 	ums 	1452
scalar ErlangenLTE.eNodeB24.x2App[6].client 	ums 	1452
scalar ErlangenLTE.eNodeB25.x2App[0].client 	ums 	1452
scalar ErlangenLTE.eNodeB25.x2App[1].client 	ums 	1452
scalar ErlangenLTE.eNodeB25.x2App[2].client 	ums 	1452
scalar ErlangenLTE.eNodeB25.x2App[3].client 	ums 	1452
scalar ErlangenLTE.eNodeB25.x2App[4].client 	ums 	1452
scalar ErlangenLTE.eNodeB25.x2App[5].client 	ums 	1452
scalar ErlangenLTE.eNodeB25.x2App[6].client 	ums 	1452
scalar ErlangenLTE.eNodeB25.x2App[7].client 	ums 	1452
scalar ErlangenLTE.eNodeB25.x2App[8].client 	ums 	1452
scalar ErlangenLTE.eNodeB25.x2App[9].client 	ums 	1452
scalar ErlangenLTE.eNodeB25.x2App[10].client 	ums 	1452
scalar ErlangenLTE.eNodeB25.x2App[11].client 	ums 	1452
scalar ErlangenLTE.eNodeB26.x2App[0].client 	ums 	1452
scalar ErlangenLTE.eNodeB26.x2App[1].client 	ums 	1452
scalar ErlangenLTE.eNodeB26.x2App[2].client 	ums 	1452
scalar ErlangenLTE.eNodeB27.x2App[0].client 	ums 	1452
scalar ErlangenLTE.eNodeB27.x2App[1].client 	ums 	1452
scalar ErlangenLTE.eNodeB27.x2App[2].client 	ums 	1452
scalar ErlangenLTE.eNodeB27.x2App[3].client 	ums 	1452
scalar ErlangenLTE.eNodeB27.x2App[4].client 	ums 	1452
scalar ErlangenLTE.eNodeB27.x2App[5].client 	ums 	1452
scalar ErlangenLTE.eNodeB27.x2App[6].client 	ums 	1452
scalar ErlangenLTE.eNodeB27.x2App[7].client 	ums 	1452
scalar ErlangenLTE.eNodeB27.x2App[8].client 	ums 	1452
scalar ErlangenLTE.eNodeB27.x2App[9].client 	ums 	1452
scalar ErlangenLTE.eNodeB27.x2App[10].client 	ums 	1452
scalar ErlangenLTE.eNodeB27.x2App[11].client 	ums 	1452
scalar ErlangenLTE.eNodeB27.x2App[12].client 	ums 	1452
scalar ErlangenLTE.eNodeB27.x2App[13].client 	ums 	1452
scalar ErlangenLTE.eNodeB27.x2App[14].client 	ums 	1452
scalar ErlangenLTE.eNodeB28.x2App[0].client 	ums 	1452
scalar ErlangenLTE.eNodeB28.x2App[1].client 	ums 	1452
scalar ErlangenLTE.eNodeB28.x2App[2].client 	ums 	1452
scalar ErlangenLTE.eNodeB28.x2App[3].client 	ums 	1452
scalar ErlangenLTE.eNodeB28.x2App[4].client 	ums 	1452
scalar ErlangenLTE.eNodeB28.x2App[5].client 	ums 	1452
scalar ErlangenLTE.eNodeB28.x2App[6].client 	ums 	1452
scalar ErlangenLTE.eNodeB28.x2App[7].client 	ums 	1452
scalar ErlangenLTE.eNodeB28.x2App[8].client 	ums 	1452
scalar ErlangenLTE.eNodeB28.x2App[9].client 	ums 	1452
scalar ErlangenLTE.eNodeB28.x2App[10].client 	ums 	1452
scalar ErlangenLTE.eNodeB28.x2App[11].client 	ums 	1452
scalar ErlangenLTE.eNodeB28.x2App[12].client 	ums 	1452
scalar ErlangenLTE.eNodeB29.x2App[0].client 	ums 	1452
scalar ErlangenLTE.eNodeB29.x2App[1].client 	ums 	1452
scalar ErlangenLTE.eNodeB29.x2App[2].client 	ums 	1452
scalar ErlangenLTE.eNodeB29.x2App[3].client 	ums 	1452
scalar ErlangenLTE.eNodeB29.x2App[4].client 	ums 	1452
scalar ErlangenLTE.eNodeB29.x2App[5].client 	ums 	1452
scalar ErlangenLTE.eNodeB29.x2App[6].client 	ums 	1452
scalar ErlangenLTE.eNodeB29.x2App[7].client 	ums 	1452
scalar ErlangenLTE.eNodeB29.x2App[8].client 	ums 	1452
scalar ErlangenLTE.eNodeB29.x2App[9].client 	ums 	1452
scalar ErlangenLTE.eNodeB29.x2App[10].client 	ums 	1452
scalar ErlangenLTE.eNodeB29.x2App[11].client 	ums 	1452
[...]
attr source  rcvdPk
attr title  "packets received, sum(packetBytes)"
scalar ErlangenLTE.car[25].udp 	sentPk:count 	0
attr interpolationmode  none
attr source  sentPk
attr title  "packets sent, count"
scalar ErlangenLTE.car[25].udp 	sentPk:sum(packetBytes) 	0
attr interpolationmode  none
attr source  sentPk
attr title  "packets sent, sum(packetBytes)"
scalar ErlangenLTE.car[25].lteNic.pdcpRrc 	sentPacketToLowerLayer:count 	0
attr interpolationmode  none
attr source  sentPacketToLowerLayer
scalar ErlangenLTE.car[25].lteNic.pdcpRrc 	sentPacketToLowerLayer:sum(packetBytes) 	0
attr interpolationmode  none
attr source  sentPacketToLowerLayer
scalar ErlangenLTE.car[25].lteNic.pdcpRrc 	sentPacketToUpperLayer:count 	25
attr interpolationmode  none
attr source  sentPacketToUpperLayer
scalar ErlangenLTE.car[25].lteNic.pdcpRrc 	sentPacketToUpperLayer:sum(packetBytes) 	1700
attr interpolationmode  none
attr source  sentPacketToUpperLayer
scalar ErlangenLTE.car[25].lteNic.pdcpRrc 	receivedPacketFromLowerLayer:count 	25
attr interpolationmode  none
attr source  receivedPacketFromLowerLayer
scalar ErlangenLTE.car[25].lteNic.pdcpRrc 	receivedPacketFromLowerLayer:sum(packetBytes) 	1725
attr interpolationmode  none
attr source  receivedPacketFromLowerLayer
scalar ErlangenLTE.car[25].lteNic.pdcpRrc 	receivedPacketFromUpperLayer:count 	0
attr interpolationmode  none
attr source  receivedPacketFromUpperLayer
scalar ErlangenLTE.car[25].lteNic.pdcpRrc 	receivedPacketFromUpperLayer:sum(packetBytes) 	0
attr interpolationmode  none
attr source  receivedPacketFromUpperLayer
scalar ErlangenLTE.car[25].lteNic.pdcpRrc 	pdcpdrop3:mean 	-nan
attr source  pdcpdrop3
attr title  "Drop at PDCP layer 3, mean"
attr unit  ""
scalar ErlangenLTE.car[25].lteNic.pdcpRrc 	pdcpdrop2:mean 	-nan
attr source  pdcpdrop2
attr title  "Drop at PDCP layer 2, mean"
attr unit  ""
scalar ErlangenLTE.car[25].lteNic.pdcpRrc 	pdcpdrop1:mean 	-nan
attr source  pdcpdrop1
attr title  "Drop at PDCP layer 1, mean"
attr unit  ""
scalar ErlangenLTE.car[25].lteNic.pdcpRrc 	pdcpdrop0:mean 	-nan
attr source  pdcpdrop0
attr title  "Drop at PDCP layer 0, mean"
attr unit  ""
scalar ErlangenLTE.car[25].lteNic.rlc.um 	rlcPduPacketLossD2D:mean 	-nan
attr source  rlcPduPacketLossD2D
attr title  "rlc Packet Loss, mean"
attr unit  ""
scalar ErlangenLTE.car[25].lteNic.rlc.um 	rlcPduPacketLossDl:mean 	0
attr source  rlcPduPacketLossDl
attr title  "rlc Packet Loss, mean"
attr unit  ""
scalar ErlangenLTE.car[25].lteNic.rlc.um 	rlcPduPacketLossUl:mean 	-nan
attr source  rlcPduPacketLossUl
attr title  "rlc Packet Loss, mean"
attr unit  ""
scalar ErlangenLTE.car[25].lteNic.rlc.um 	rlcPacketLossTotal:mean 	0
attr source  rlcPacketLossTotal
attr title  "rlc Packet Loss, mean"
attr unit  ""
scalar ErlangenLTE.car[25].lteNic.rlc.um 	rlcPacketLossD2D:mean 	-nan
attr source  rlcPacketLossD2D
attr title  "rlc Packet Loss, mean"
attr unit  ""
scalar ErlangenLTE.car[25].lteNic.rlc.um 	rlcPacketLossDl:mean 	0
attr source  rlcPacketLossDl
attr title  "rlc Packet Loss, mean"
attr unit  ""
scalar ErlangenLTE.car[25].lteNic.rlc.um 	rlcPacketLossUl:mean 	-nan
attr source  rlcPacketLossUl
attr title  "rlc Packet Loss, mean"
attr unit  ""
scalar ErlangenLTE.car[25].lteNic.rlc.um 	rlcCellPacketLossD2D:mean 	-nan
attr source  rlcCellPacketLossD2D
attr title  "rlc Cell Packet Loss, mean"
attr unit  ""
scalar ErlangenLTE.car[25].lteNic.rlc.um 	rlcCellPacketLossUl:mean 	-nan
attr source  rlcCellPacketLossUl
attr title  "rlc Cell Packet Loss, mean"
attr unit  ""
scalar ErlangenLTE.car[25].lteNic.rlc.um 	rlcCellPacketLossDl:mean 	-nan
attr source  rlcCellPacketLossDl
attr title  "rlc Cell Packet Loss, mean"
attr unit  ""
scalar ErlangenLTE.car[25].lteNic.rlc.um 	rlcCellThroughputD2D:mean 	-nan
attr source  rlcCellThroughputD2D
attr title  "Cell Throughput at the rlc layer D2D, mean"
attr unit  Bps
scalar ErlangenLTE.car[25].lteNic.rlc.um 	rlcCellThroughputDl:mean 	-nan
attr source  rlcCellThroughputDl
attr title  "Cell Throughput at the rlc layer DL, mean"
attr unit  Bps
scalar ErlangenLTE.car[25].lteNic.rlc.um 	rlcCellThroughputUl:mean 	-nan
attr source  rlcCellThroughputUl
attr title  "Cell Throughput at the rlc layer UL, mean"
attr unit  Bps
scalar ErlangenLTE.car[25].lteNic.rlc.um 	rlcPduThroughputD2D:mean 	-nan
attr source  rlcPduThroughputD2D
attr title  "Throughput at the rlc layer D2D, mean"
attr unit  Bps
scalar ErlangenLTE.car[25].lteNic.rlc.um 	rlcPduDelayD2D:mean 	-nan
attr source  rlcPduDelayD2D
attr title  "Delay at the rlc layer D2D, mean"
attr unit  s
scalar ErlangenLTE.car[25].lteNic.rlc.um 	rlcPduThroughputUl:mean 	-nan
attr source  rlcPduThroughputUl
attr title  "Throughput at the rlc layer UL, mean"
attr unit  Bps
scalar ErlangenLTE.car[25].lteNic.rlc.um 	rlcPduDelayUl:mean 	-nan
attr source  rlcPduDelayUl
attr title  "Delay at the rlc layer UL, mean"
attr unit  s
scalar ErlangenLTE.car[25].lteNic.rlc.um 	rlcPduThroughputDl:mean 	5.0265506510086
attr source  rlcPduThroughputDl
attr title  "Throughput at the rlc layer DL, mean"
attr unit  Bps
scalar ErlangenLTE.car[25].lteNic.rlc.um 	rlcPduDelayDl:mean 	0.004
attr source  rlcPduDelayDl
attr title  "Delay at the rlc layer UL, mean"
attr unit  s
scalar ErlangenLTE.car[25].lteNic.rlc.um 	rlcThroughputD2D:mean 	-nan
attr source  rlcThroughputD2D
attr title  "Throughput at the rlc layer D2D, mean"
attr unit  Bps
scalar ErlangenLTE.car[25].lteNic.rlc.um 	rlcDelayD2D:mean 	-nan
attr source  rlcDelayD2D
attr title  "Delay at the rlc layer D2D, mean"
attr unit  s
scalar ErlangenLTE.car[25].lteNic.rlc.um 	rlcThroughputUl:mean 	-nan
attr source  rlcThroughputUl
attr title  "Throughput at the rlc layer UL, mean"
attr unit  Bps
scalar ErlangenLTE.car[25].lteNic.rlc.um 	rlcDelayUl:mean 	-nan
attr source  rlcDelayUl
attr title  "Delay at the rlc layer UL, mean"
attr unit  s
scalar ErlangenLTE.car[25].lteNic.rlc.um 	rlcThroughputDl:mean 	4.8849576749238
attr source  rlcThroughputDl
attr title  "Throughput at the rlc layer DL, mean"
attr unit  Bps
scalar ErlangenLTE.car[25].lteNic.rlc.um 	rlcDelayDl:mean 	0.00507972176
attr source  rlcDelayDl
attr title  "Delay at the rlc layer UL, mean"
attr unit  s
scalar ErlangenLTE.car[25].lteNic.rlc.am 	rlcPduPacketLossD2D:mean 	-nan
attr source  rlcPduPacketLossD2D
attr title  "rlc Packet Loss, mean"
attr unit  ""
scalar ErlangenLTE.car[25].lteNic.rlc.am 	rlcPduPacketLossDl:mean 	-nan
attr source  rlcPduPacketLossDl
attr title  "rlc Packet Loss, mean"
attr unit  ""
scalar ErlangenLTE.car[25].lteNic.rlc.am 	rlcPduPacketLossUl:mean 	-nan
attr source  rlcPduPacketLossUl
attr title  "rlc Packet Loss, mean"
attr unit  ""
scalar ErlangenLTE.car[25].lteNic.rlc.am 	rlcPacketLossTotal:mean 	-nan
attr source  rlcPacketLossTotal
attr title  "rlc Packet Loss, mean"
attr unit  ""
scalar ErlangenLTE.car[25].lteNic.rlc.am 	rlcPacketLossD2D:mean 	-nan
attr source  rlcPacketLossD2D
attr title  "rlc Packet Loss, mean"
attr unit  ""
scalar ErlangenLTE.car[25].lteNic.rlc.am 	rlcPacketLossDl:mean 	-nan
attr source  rlcPacketLossDl
attr title  "rlc Packet Loss, mean"
attr unit  ""
scalar ErlangenLTE.car[25].lteNic.rlc.am 	rlcPacketLossUl:mean 	-nan
attr source  rlcPacketLossUl
attr title  "rlc Packet Loss, mean"
attr unit  ""
scalar ErlangenLTE.car[25].lteNic.rlc.am 	rlcCellPacketLossD2D:mean 	-nan
attr source  rlcCellPacketLossD2D
attr title  "rlc Cell Packet Loss, mean"
attr unit  ""
scalar ErlangenLTE.car[25].lteNic.rlc.am 	rlcCellPacketLossUl:mean 	-nan
attr source  rlcCellPacketLossUl
attr title  "rlc Cell Packet Loss, mean"
attr unit  ""
scalar ErlangenLTE.car[25].lteNic.rlc.am 	rlcCellPacketLossDl:mean 	-nan
attr source  rlcCellPacketLossDl
attr title  "rlc Cell Packet Loss, mean"
attr unit  ""
scalar ErlangenLTE.car[25].lteNic.rlc.am 	rlcCellThroughputD2D:mean 	-nan
attr source  rlcCellThroughputD2D
attr title  "Cell Throughput at the rlc layer D2D, mean"
attr unit  Bps
scalar ErlangenLTE.car[25].lteNic.rlc.am 	rlcCellThroughputDl:mean 	-nan
attr source  rlcCellThroughputDl
attr title  "Cell Throughput at the rlc layer DL, mean"
attr unit  Bps
scalar ErlangenLTE.car[25].lteNic.rlc.am 	rlcCellThroughputUl:mean 	-nan
attr source  rlcCellThroughputUl
attr title  "Cell Throughput at the rlc layer UL, mean"
attr unit  Bps
scalar ErlangenLTE.car[25].lteNic.rlc.am 	rlcPduThroughputD2D:mean 	-nan
attr source  rlcPduThroughputD2D
attr title  "Throughput at the rlc layer D2D, mean"
attr unit  Bps
scalar ErlangenLTE.car[25].lteNic.rlc.am 	rlcPduDelayD2D:mean 	-nan
attr source  rlcPduDelayD2D
attr title  "Delay at the rlc layer D2D, mean"
attr unit  s
scalar ErlangenLTE.car[25].lteNic.rlc.am 	rlcPduThroughputUl:mean 	-nan
attr source  rlcPduThroughputUl
attr title  "Throughput at the rlc layer UL, mean"
attr unit  Bps
scalar ErlangenLTE.car[25].lteNic.rlc.am 	rlcPduDelayUl:mean 	-nan
attr source  rlcPduDelayUl
attr title  "Delay at the rlc layer UL, mean"
attr unit  s
scalar ErlangenLTE.car[25].lteNic.rlc.am 	rlcPduThroughputDl:mean 	-nan
attr source  rlcPduThroughputDl
attr title  "Throughput at the rlc layer DL, mean"
attr unit  Bps
scalar ErlangenLTE.car[25].lteNic.rlc.am 	rlcPduDelayDl:mean 	-nan
attr source  rlcPduDelayDl
attr title  "Delay at the rlc layer UL, mean"
attr unit  s
scalar ErlangenLTE.car[25].lteNic.rlc.am 	rlcThroughputD2D:mean 	-nan
attr source  rlcThroughputD2D
attr title  "Throughput at the rlc layer D2D, mean"
attr unit  Bps
scalar ErlangenLTE.car[25].lteNic.rlc.am 	rlcDelayD2D:mean 	-nan
attr source  rlcDelayD2D
attr title  "Delay at the rlc layer D2D, mean"
attr unit  s
scalar ErlangenLTE.car[25].lteNic.rlc.am 	rlcThroughputUl:mean 	-nan
attr source  rlcThroughputUl
attr title  "Throughput at the rlc layer UL, mean"
attr unit  Bps
scalar ErlangenLTE.car[25].lteNic.rlc.am 	rlcDelayUl:mean 	-nan
attr source  rlcDelayUl
attr title  "Delay at the rlc layer UL, mean"
attr unit  s
scalar ErlangenLTE.car[25].lteNic.rlc.am 	rlcThroughputDl:mean 	-nan
attr source  rlcThroughputDl
attr title  "Throughput at the rlc layer DL, mean"
attr unit  Bps
scalar ErlangenLTE.car[25].lteNic.rlc.am 	rlcDelayDl:mean 	-nan
attr source  rlcDelayDl
attr title  "Delay at the rlc layer UL, mean"
attr unit  s
scalar ErlangenLTE.car[25].lteNic.mac 	cqiDlMuMimo4:mean 	10.951807228916
attr source  cqiDlMuMimo4
attr title  "Average cqi MuMimo band 4, mean"
attr unit  cqi
scalar ErlangenLTE.car[25].lteNic.mac 	cqiDlMuMimo3:mean 	11.55421686747
attr source  cqiDlMuMimo3
attr title  "Average cqi MuMimo band 3, mean"
attr unit  cqi
scalar ErlangenLTE.car[25].lteNic.mac 	cqiDlMuMimo2:mean 	13.493975903614
attr source  cqiDlMuMimo2
attr title  "Average cqi MuMimo band 2, mean"
attr unit  cqi
scalar ErlangenLTE.car[25].lteNic.mac 	cqiDlMuMimo1:mean 	9.289156626506
attr source  cqiDlMuMimo1
attr title  "Average cqi MuMimo band 1, mean"
attr unit  cqi
scalar ErlangenLTE.car[25].lteNic.mac 	cqiDlMuMimo0:mean 	11.819277108434
attr source  cqiDlMuMimo0
attr title  "Average cqi MuMimo band 0, mean"
attr unit  cqi
scalar ErlangenLTE.car[25].lteNic.mac 	cqiDlTxDiv4:mean 	15
attr source  cqiDlTxDiv4
attr title  "Average cqi TxDiv band 4, mean"
attr unit  cqi
scalar ErlangenLTE.car[25].lteNic.mac 	cqiDlTxDiv3:mean 	15
attr source  cqiDlTxDiv3
attr title  "Average cqi TxDiv band 3, mean"
attr unit  cqi
scalar ErlangenLTE.car[25].lteNic.mac 	cqiDlTxDiv2:mean 	15
attr source  cqiDlTxDiv2
attr title  "Average cqi TxDiv band 2, mean"
attr unit  cqi
scalar ErlangenLTE.car[25].lteNic.mac 	cqiDlTxDiv1:mean 	15
attr source  cqiDlTxDiv1
attr title  "Average cqi TxDiv band 1, mean"
attr unit  cqi
scalar ErlangenLTE.car[25].lteNic.mac 	cqiDlTxDiv0:mean 	15
attr source  cqiDlTxDiv0
attr title  "Average cqi TxDiv band 0, mean"
attr unit  cqi
scalar ErlangenLTE.car[25].lteNic.mac 	cqiDlSpmux4:mean 	7.7831325301205
attr source  cqiDlSpmux4
attr title  "Average cqi Spmux band 4, mean"
attr unit  cqi
scalar ErlangenLTE.car[25].lteNic.mac 	cqiDlSpmux3:mean 	8.1686746987952
attr source  cqiDlSpmux3
attr title  "Average cqi Spmux band 3, mean"
attr unit  cqi
scalar ErlangenLTE.car[25].lteNic.mac 	cqiDlSpmux2:mean 	10.156626506024
attr source  cqiDlSpmux2
attr title  "Average cqi Spmux band 2, mean"
attr unit  cqi
scalar ErlangenLTE.car[25].lteNic.mac 	cqiDlSpmux1:mean 	7.1325301204819
attr source  cqiDlSpmux1
attr title  "Average cqi Spmux band 1, mean"
attr unit  cqi
scalar ErlangenLTE.car[25].lteNic.mac 	cqiDlSpmux0:mean 	8.9156626506024
attr source  cqiDlSpmux0
attr title  "Average cqi Spmux band 0, mean"
attr unit  cqi
scalar ErlangenLTE.car[25].lteNic.mac 	cqiDlSiso4:mean 	10.951807228916
attr source  cqiDlSiso4
attr title  "Average cqi siso band 4, mean"
attr unit  cqi
scalar ErlangenLTE.car[25].lteNic.mac 	cqiDlSiso3:mean 	11.55421686747
attr source  cqiDlSiso3
attr title  "Average cqi siso band 3, mean"
attr unit  cqi
scalar ErlangenLTE.car[25].lteNic.mac 	cqiDlSiso2:mean 	13.493975903614
attr source  cqiDlSiso2
attr title  "Average cqi siso band 2, mean"
attr unit  cqi
scalar ErlangenLTE.car[25].lteNic.mac 	cqiDlSiso1:mean 	9.289156626506
attr source  cqiDlSiso1
attr title  "Average cqi siso band 1, mean"
attr unit  cqi
scalar ErlangenLTE.car[25].lteNic.mac 	cqiDlSiso0:mean 	11.819277108434
attr source  cqiDlSiso0
attr title  "Average cqi siso band 0, mean"
attr unit  cqi
scalar ErlangenLTE.car[25].lteNic.mac 	measuredItbs:mean 	-nan
attr source  measuredItbs
attr title  "TBS index, mean"
attr unit  ""
scalar ErlangenLTE.car[25].lteNic.mac 	harqErrorRate_4th_D2D:mean 	-nan
attr source  harqErrorRate_4th_D2D
attr title  "Harq Error Rate D2D, mean"
attr unit  ""
scalar ErlangenLTE.car[25].lteNic.mac 	harqErrorRate_4th_Dl:mean 	-nan
attr source  harqErrorRate_4th_Dl
attr title  "Harq Error Rate Dl, mean"
attr unit  ""
scalar ErlangenLTE.car[25].lteNic.mac 	harqErrorRate_4th_Ul:mean 	-nan
attr source  harqErrorRate_4th_Ul
attr title  "Harq Error Rate Dl, mean"
attr unit  ""
scalar ErlangenLTE.car[25].lteNic.mac 	harqErrorRate_3rd_D2D:mean 	-nan
attr source  harqErrorRate_3rd_D2D
attr title  "Harq Error Rate D2D, mean"
attr unit  ""
scalar ErlangenLTE.car[25].lteNic.mac 	harqErrorRate_3rd_Dl:mean 	-nan
attr source  harqErrorRate_3rd_Dl
attr title  "Harq Error Rate Dl, mean"
attr unit  ""
scalar ErlangenLTE.car[25].lteNic.mac 	harqErrorRate_3rd_Ul:mean 	-nan
attr source  harqErrorRate_3rd_Ul
attr title  "Harq Error Rate Dl, mean"
attr unit  ""
scalar ErlangenLTE.car[25].lteNic.mac 	harqErrorRate_2nd_D2D:mean 	-nan
attr source  harqErrorRate_2nd_D2D
attr title  "Harq Error Rate D2D, mean"
attr unit  ""
scalar ErlangenLTE.car[25].lteNic.mac 	harqErrorRate_2nd_Dl:mean 	-nan
attr source  harqErrorRate_2nd_Dl
attr title  "Harq Error Rate Dl, mean"
attr unit  ""
scalar ErlangenLTE.car[25].lteNic.mac 	harqErrorRate_2nd_Ul:mean 	-nan
attr source  harqErrorRate_2nd_Ul
attr title  "Harq Error Rate Dl, mean"
attr unit  ""
scalar ErlangenLTE.car[25].lteNic.mac 	harqErrorRate_1st_D2D:mean 	-nan
attr source  harqErrorRate_1st_D2D
attr title  "Harq Error Rate D2D, mean"
attr unit  ""
scalar ErlangenLTE.car[25].lteNic.mac 	harqErrorRate_1st_Dl:mean 	0
attr source  harqErrorRate_1st_Dl
attr title  "Harq Error Rate Dl, mean"
attr unit  ""
scalar ErlangenLTE.car[25].lteNic.mac 	harqErrorRate_1st_Ul:mean 	-nan
attr source  harqErrorRate_1st_Ul
attr title  "Harq Error Rate Dl, mean"
attr unit  ""
scalar ErlangenLTE.car[25].lteNic.mac 	harqErrorRateD2D:mean 	-nan
attr source  harqErrorRateD2D
attr title  "Harq Error Rate D2D, mean"
attr unit  ""
scalar ErlangenLTE.car[25].lteNic.mac 	harqErrorRateDl:mean 	0
attr source  harqErrorRateDl
attr title  "Harq Error Rate Dl, mean"
attr unit  ""
scalar ErlangenLTE.car[25].lteNic.mac 	harqErrorRateUl:mean 	-nan
attr source  harqErrorRateUl
attr title  "Harq Error Rate Dl, mean"
attr unit  ""
scalar ErlangenLTE.car[25].lteNic.mac 	macBufferOverFlowD2D:mean 	-nan
attr source  macBufferOverFlowD2D
attr title  "Mac buffer overflow as function of time, mean"
attr unit  Byte/s
scalar ErlangenLTE.car[25].lteNic.mac 	macBufferOverFlowUl:mean 	-nan
attr source  macBufferOverFlowUl
attr title  "Mac buffer overflow as function of time, mean"
attr unit  Byte/s
scalar ErlangenLTE.car[25].lteNic.mac 	macBufferOverFlowDl:mean 	-nan
attr source  macBufferOverFlowDl
attr title  "Mac buffer overflow as function of time, mean"
attr unit  Byte/s
scalar ErlangenLTE.car[25].lteNic.mac 	macPacketLossD2D:mean 	-nan
attr source  macPacketLossD2D
attr title  "Mac Packet Loss D2D, mean"
attr unit  ""
scalar ErlangenLTE.car[25].lteNic.mac 	macPacketLossDl:mean 	0
attr source  macPacketLossDl
attr title  "Mac Packet Loss, mean"
attr unit  ""
scalar ErlangenLTE.car[25].lteNic.mac 	macPacketLossUl:mean 	-nan
attr source  macPacketLossUl
attr title  "Mac Packet Loss, mean"
attr unit  ""
scalar ErlangenLTE.car[25].lteNic.mac 	macCellPacketLossD2D:mean 	-nan
attr source  macCellPacketLossD2D
attr title  "Mac Cell Packet Loss D2D, mean"
attr unit  ""
scalar ErlangenLTE.car[25].lteNic.mac 	macCellPacketLossUl:mean 	-nan
attr source  macCellPacketLossUl
attr title  "Mac Cell Packet Loss, mean"
attr unit  ""
scalar ErlangenLTE.car[25].lteNic.mac 	macCellPacketLossDl:mean 	-nan
attr source  macCellPacketLossDl
attr title  "Mac Cell Packet Loss, mean"
attr unit  ""
scalar ErlangenLTE.car[25].lteNic.mac 	macCellThroughputD2D:mean 	-nan
attr source  macCellThroughputD2D
attr title  "Cell Throughput at the MAC layer D2D, mean"
attr unit  Bps
scalar ErlangenLTE.car[25].lteNic.mac 	macCellThroughputDl:mean 	-nan
attr source  macCellThroughputDl
attr title  "Cell Throughput at the MAC layer DL, mean"
attr unit  Bps
scalar ErlangenLTE.car[25].lteNic.mac 	macCellThroughputUl:mean 	-nan
attr source  macCellThroughputUl
attr title  "Cell Throughput at the MAC layer UL, mean"
attr unit  Bps
scalar ErlangenLTE.car[25].lteNic.mac 	macThroughputD2D:mean 	-nan
attr source  macThroughputD2D
attr title  "Throughput at the MAC layer D2D, mean"
attr unit  Bps
scalar ErlangenLTE.car[25].lteNic.mac 	macDelayD2D:mean 	-nan
attr source  macDelayD2D
attr title  "Delay at the MAC layer D2D, mean"
attr unit  s
scalar ErlangenLTE.car[25].lteNic.mac 	macThroughputUl:mean 	-nan
attr source  macThroughputUl
attr title  "Throughput at the MAC layer UL, mean"
attr unit  Bps
scalar ErlangenLTE.car[25].lteNic.mac 	macDelayUl:mean 	-nan
attr source  macDelayUl
attr title  "Delay at the MAC layer UL, mean"
attr unit  s
scalar ErlangenLTE.car[25].lteNic.mac 	macThroughputDl:mean 	5.1681436270933
attr source  macThroughputDl
attr title  "Throughput at the MAC layer DL, mean"
attr unit  Bps
scalar ErlangenLTE.car[25].lteNic.mac 	macDelayDl:mean 	-nan
attr source  macDelayDl
attr title  "Delay at the MAC layer UL, mean"
attr unit  s
scalar ErlangenLTE.car[25].lteNic.mac 	sentPacketToLowerLayer:count 	25
attr interpolationmode  none
attr source  sentPacketToLowerLayer
scalar ErlangenLTE.car[25].lteNic.mac 	sentPacketToLowerLayer:sum(packetBytes) 	0
attr interpolationmode  none
attr source  sentPacketToLowerLayer
scalar ErlangenLTE.car[25].lteNic.mac 	sentPacketToUpperLayer:count 	25
attr interpolationmode  none
attr source  sentPacketToUpperLayer
scalar ErlangenLTE.car[25].lteNic.mac 	sentPacketToUpperLayer:sum(packetBytes) 	1775
attr interpolationmode  none
attr source  sentPacketToUpperLayer
scalar ErlangenLTE.car[25].lteNic.mac 	receivedPacketFromLowerLayer:count 	25
attr interpolationmode  none
attr source  receivedPacketFromLowerLayer
scalar ErlangenLTE.car[25].lteNic.mac 	receivedPacketFromLowerLayer:sum(packetBytes) 	1825
attr interpolationmode  none
attr source  receivedPacketFromLowerLayer
scalar ErlangenLTE.car[25].lteNic.mac 	receivedPacketFromUpperLayer:count 	0
attr interpolationmode  none
attr source  receivedPacketFromUpperLayer
scalar ErlangenLTE.car[25].lteNic.mac 	receivedPacketFromUpperLayer:sum(packetBytes) 	0
attr interpolationmode  none
attr source  receivedPacketFromUpperLayer
scalar ErlangenLTE.car[25].lteNic.phy 	averageCqiUl:mean 	-nan
attr source  averageCqiUl
attr title  "Average Cqi reported in UL, mea