                                                                
version 2
run VoIP-DL-0-20190209-12:38:21-20516
attr configname VoIP-DL
attr datetime 20190209-12:38:21
attr experiment VoIP-DL
attr inifile omnetpp.ini
attr iterationvars ""
attr iterationvarsf ""
attr measurement ""
attr network ErlangenLTE
attr processid 20516
attr repetition 0
attr replication #0
attr resultdir results
attr runnumber 0
attr seedset 0
param **.broadcastMessageInterval 0.2s
param **.car[*].macCellId 1
param **.car[*].masterId 1
param **.channelControl.alpha 1.0
param **.channelControl.carrierFrequency 2100e+6Hz
param **.channelControl.pMax 1W
param **.coreDebug false
param **.deployer.antennaCws "\"2;\""
param **.deployer.numRbDl 25
param **.deployer.numRbUl 25
param **.deployer.positionUpdateInterval 0.05s
param **.deployer.ruRange 50
param **.deployer.ruTxPower "\"50,50,50;\""
param **.dynamicCellAssociation true
param **.eNodeB*.mobility.constraintAreaMaxX 3000m
param **.eNodeB*.mobility.constraintAreaMaxY 3000m
param **.eNodeB*.mobility.constraintAreaMaxZ 0m
param **.eNodeB*.mobility.constraintAreaMinX 0m
param **.eNodeB*.mobility.constraintAreaMinY 0m
param **.eNodeB*.mobility.constraintAreaMinZ 0m
param **.eNodeB*.mobility.initFromDisplayString true
param **.eNodeB1.macCellId 1
param **.eNodeB1.macNodeId 1
param **.eNodeB10.macCellId 10
param **.eNodeB10.macNodeId 10
param **.eNodeB11.macCellId 11
param **.eNodeB11.macNodeId 11
param **.eNodeB12.macCellId 12
param **.eNodeB12.macNodeId 12
param **.eNodeB13.macCellId 13
param **.eNodeB13.macNodeId 13
param **.eNodeB14.macCellId 14
param **.eNodeB14.macNodeId 14
param **.eNodeB15.macCellId 15
param **.eNodeB15.macNodeId 15
param **.eNodeB16.macCellId 16
param **.eNodeB16.macNodeId 16
param **.eNodeB17.macCellId 17
param **.eNodeB17.macNodeId 17
param **.eNodeB18.macCellId 18
param **.eNodeB18.macNodeId 18
param **.eNodeB19.macCellId 19
param **.eNodeB19.macNodeId 19
param **.eNodeB2.macCellId 2
param **.eNodeB2.macNodeId 2
param **.eNodeB20.macCellId 20
param **.eNodeB20.macNodeId 20
param **.eNodeB21.macCellId 21
param **.eNodeB21.macNodeId 21
param **.eNodeB22.macCellId 22
param **.eNodeB22.macNodeId 22
param **.eNodeB23.macCellId 23
param **.eNodeB23.macNodeId 23
param **.eNodeB24.macCellId 24
param **.eNodeB24.macNodeId 24
param **.eNodeB25.macCellId 25
param **.eNodeB25.macNodeId 25
param **.eNodeB26.macCellId 26
param **.eNodeB26.macNodeId 26
param **.eNodeB27.macCellId 27
param **.eNodeB27.macNodeId 27
param **.eNodeB28.macCellId 28
param **.eNodeB28.macNodeId 28
param **.eNodeB29.macCellId 29
param **.eNodeB29.macNodeId 29
param **.eNodeB3.macCellId 3
param **.eNodeB3.macNodeId 3
param **.eNodeB30.macCellId 30
param **.eNodeB30.macNodeId 30
param **.eNodeB31.macCellId 31
param **.eNodeB31.macNodeId 31
param **.eNodeB32.macCellId 32
param **.eNodeB32.macNodeId 32
param **.eNodeB33.macCellId 33
param **.eNodeB33.macNodeId 33
param **.eNodeB34.macCellId 34
param **.eNodeB34.macNodeId 34
param **.eNodeB35.macCellId 35
param **.eNodeB35.macNodeId 35
param **.eNodeB36.macCellId 36
param **.eNodeB36.macNodeId 36
param **.eNodeB37.macCellId 37
param **.eNodeB37.macNodeId 37
param **.eNodeB38.macCellId 38
param **.eNodeB38.macNodeId 38
param **.eNodeB39.macCellId 39
param **.eNodeB39.macNodeId 39
param **.eNodeB4.macCellId 4
param **.eNodeB4.macNodeId 4
param **.eNodeB40.macCellId 40
param **.eNodeB40.macNodeId 40
param **.eNodeB41.macCellId 41
param **.eNodeB41.macNodeId 41
param **.eNodeB42.macCellId 42
param **.eNodeB42.macNodeId 42
param **.eNodeB43.macCellId 43
param **.eNodeB43.macNodeId 43
param **.eNodeB44.macCellId 44
param **.eNodeB44.macNodeId 44
param **.eNodeB45.macCellId 45
param **.eNodeB45.macNodeId 45
param **.eNodeB46.macCellId 46
param **.eNodeB46.macNodeId 46
param **.eNodeB47.macCellId 47
param **.eNodeB47.macNodeId 47
param **.eNodeB48.macCellId 48
param **.eNodeB48.macNodeId 48
param **.eNodeB49.macCellId 49
param **.eNodeB49.macNodeId 49
param **.eNodeB5.macCellId 5
param **.eNodeB5.macNodeId 5
param **.eNodeB50.macCellId 50
param **.eNodeB50.macNodeId 50
param **.eNodeB51.macCellId 51
param **.eNodeB51.macNodeId 51
param **.eNodeB52.macCellId 52
param **.eNodeB52.macNodeId 52
param **.eNodeB53.macCellId 53
param **.eNodeB53.macNodeId 53
param **.eNodeB54.macCellId 54
param **.eNodeB54.macNodeId 54
param **.eNodeB55.macCellId 55
param **.eNodeB55.macNodeId 55
param **.eNodeB56.macCellId 56
param **.eNodeB56.macNodeId 56
param **.eNodeB57.macCellId 57
param **.eNodeB57.macNodeId 57
param **.eNodeB58.macCellId 58
param **.eNodeB58.macNodeId 58
param **.eNodeB59.macCellId 59
param **.eNodeB59.macNodeId 59
param **.eNodeB6.macCellId 6
param **.eNodeB6.macNodeId 6
param **.eNodeB60.macCellId 60
param **.eNodeB60.macNodeId 60
param **.eNodeB61.macCellId 61
param **.eNodeB61.macNodeId 61
param **.eNodeB62.macCellId 62
param **.eNodeB62.macNodeId 62
param **.eNodeB63.macCellId 63
param **.eNodeB63.macNodeId 63
param **.eNodeB64.macCellId 64
param **.eNodeB64.macNodeId 64
param **.eNodeB65.macCellId 65
param **.eNodeB65.macNodeId 65
param **.eNodeB66.macCellId 66
param **.eNodeB66.macNodeId 66
param **.eNodeB7.macCellId 7
param **.eNodeB7.macNodeId 7
param **.eNodeB8.macCellId 8
param **.eNodeB8.macNodeId 8
param **.eNodeB9.macCellId 9
param **.eNodeB9.macNodeId 9
param **.eNodeBCount 66
param **.enableHandover true
param **.fbDelay 1
param **.feedbackComputation "xmldoc(\"config_channel.xml\")"
param **.feedbackGeneratorType "\"IDEAL\""
param **.feedbackType "\"ALLBANDS\""
param **.lteNic.phy.channelModel "xmldoc(\"config_channel.xml\")"
param **.maxHarqRtx 3
param **.numBands 25
param **.numUe 457
param **.rbAllocationType "\"localized\""
param **.routingRecorder.enabled false
param **.sctp.enableHeartbeats false
param **.sctp.nagleEnabled false
param *.annotations.draw true
param *.car[*].configurator.mcastGroups "\"224.0.0.10\""
param *.car[*].mobilityType "\"VeinsInetMobility\""
param *.car[*].numUdpApps 1
param *.car[*].udpApp[0].typename "\"VoIPReceiver\""
param *.eNodeB*.deployer.microCell true
param *.eNodeB*.txPower 0.1mw
param *.eNodeB*.x2App[*].server.localPort "5000 + ancestorIndex(1)"
param *.eNodeB1.numX2Apps 14
param *.eNodeB1.x2App[0].client.connectAddress "\"eNodeB22%x2ppp0\""
param *.eNodeB1.x2App[10].client.connectAddress "\"eNodeB45%x2ppp0\""
param *.eNodeB1.x2App[11].client.connectAddress "\"eNodeB54%x2ppp0\""
param *.eNodeB1.x2App[12].client.connectAddress "\"eNodeB58%x2ppp0\""
param *.eNodeB1.x2App[13].client.connectAddress "\"eNodeB66%x2ppp0\""
param *.eNodeB1.x2App[1].client.connectAddress "\"eNodeB41%x2ppp0\""
param *.eNodeB1.x2App[2].client.connectAddress "\"eNodeB50%x2ppp0\""
param *.eNodeB1.x2App[3].client.connectAddress "\"eNodeB14%x2ppp0\""
param *.eNodeB1.x2App[4].client.connectAddress "\"eNodeB43%x2ppp0\""
param *.eNodeB1.x2App[5].client.connectAddress "\"eNodeB6%x2ppp0\""
param *.eNodeB1.x2App[6].client.connectAddress "\"eNodeB11%x2ppp0\""
param *.eNodeB1.x2App[7].client.connectAddress "\"eNodeB27%x2ppp0\""
param *.eNodeB1.x2App[8].client.connectAddress "\"eNodeB37%x2ppp0\""
param *.eNodeB1.x2App[9].client.connectAddress "\"eNodeB42%x2ppp0\""
param *.eNodeB10.numX2Apps 13
param *.eNodeB10.x2App[0].client.connectAddress "\"eNodeB7%x2ppp3\""
param *.eNodeB10.x2App[10].client.connectAddress "\"eNodeB35%x2ppp3\""
param *.eNodeB10.x2App[11].client.connectAddress "\"eNodeB60%x2ppp1\""
param *.eNodeB10.x2App[12].client.connectAddress "\"eNodeB65%x2ppp0\""
param *.eNodeB10.x2App[1].client.connectAddress "\"eNodeB8%x2ppp4\""
param *.eNodeB10.x2App[2].client.connectAddress "\"eNodeB13%x2ppp3\""
param *.eNodeB10.x2App[3].client.connectAddress "\"eNodeB57%x2ppp2\""
param *.eNodeB10.x2App[4].client.connectAddress "\"eNodeB63%x2ppp2\""
param *.eNodeB10.x2App[5].client.connectAddress "\"eNodeB15%x2ppp0\""
param *.eNodeB10.x2App[6].client.connectAddress "\"eNodeB28%x2ppp1\""
param *.eNodeB10.x2App[7].client.connectAddress "\"eNodeB47%x2ppp5\""
param *.eNodeB10.x2App[8].client.connectAddress "\"eNodeB64%x2ppp2\""
param *.eNodeB10.x2App[9].client.connectAddress "\"eNodeB31%x2ppp4\""
param *.eNodeB11.numX2Apps 10
param *.eNodeB11.x2App[0].client.connectAddress "\"eNodeB22%x2ppp2\""
param *.eNodeB11.x2App[1].client.connectAddress "\"eNodeB39%x2ppp0\""
param *.eNodeB11.x2App[2].client.connectAddress "\"eNodeB40%x2ppp0\""
param *.eNodeB11.x2App[3].client.connectAddress "\"eNodeB54%x2ppp1\""
param *.eNodeB11.x2App[4].client.connectAddress "\"eNodeB18%x2ppp0\""
param *.eNodeB11.x2App[5].client.connectAddress "\"eNodeB43%x2ppp2\""
param *.eNodeB11.x2App[6].client.connectAddress "\"eNodeB1%x2ppp1\""
param *.eNodeB11.x2App[7].client.connectAddress "\"eNodeB14%x2ppp3\""
param *.eNodeB11.x2App[8].client.connectAddress "\"eNodeB41%x2ppp3\""
param *.eNodeB11.x2App[9].client.connectAddress "\"eNodeB66%x2ppp3\""
param *.eNodeB12.numX2Apps 9
param *.eNodeB12.x2App[0].client.connectAddress "\"eNodeB3%x2ppp0\""
param *.eNodeB12.x2App[1].client.connectAddress "\"eNodeB62%x2ppp1\""
param *.eNodeB12.x2App[2].client.connectAddress "\"eNodeB36%x2ppp0\""
param *.eNodeB12.x2App[3].client.connectAddress "\"eNodeB38%x2ppp1\""
param *.eNodeB12.x2App[4].client.connectAddress "\"eNodeB55%x2ppp2\""
param *.eNodeB12.x2App[5].client.connectAddress "\"eNodeB30%x2ppp3\""
param *.eNodeB12.x2App[6].client.connectAddress "\"eNodeB32%x2ppp4\""
param *.eNodeB12.x2App[7].client.connectAddress "\"eNodeB44%x2ppp2\""
param *.eNodeB12.x2App[8].client.connectAddress "\"eNodeB46%x2ppp3\""
param *.eNodeB13.numX2Apps 14
param *.eNodeB13.x2App[0].client.connectAddress "\"eNodeB8%x2ppp5\""
param *.eNodeB13.x2App[10].client.connectAddress "\"eNodeB47%x2ppp6\""
param *.eNodeB13.x2App[11].client.connectAddress "\"eNodeB60%x2ppp2\""
param *.eNodeB13.x2App[12].client.connectAddress "\"eNodeB64%x2ppp3\""
param *.eNodeB13.x2App[13].client.connectAddress "\"eNodeB65%x2ppp1\""
param *.eNodeB13.x2App[1].client.connectAddress "\"eNodeB10%x2ppp2\""
param *.eNodeB13.x2App[2].client.connectAddress "\"eNodeB31%x2ppp5\""
param *.eNodeB13.x2App[3].client.connectAddress "\"eNodeB63%x2ppp3\""
param *.eNodeB13.x2App[4].client.connectAddress "\"eNodeB57%x2ppp3\""
param *.eNodeB13.x2App[5].client.connectAddress "\"eNodeB2%x2ppp4\""
param *.eNodeB13.x2App[6].client.connectAddress "\"eNodeB7%x2ppp4\""
param *.eNodeB13.x2App[7].client.connectAddress "\"eNodeB19%x2ppp1\""
param *.eNodeB13.x2App[8].client.connectAddress "\"eNodeB28%x2ppp2\""
param *.eNodeB13.x2App[9].client.connectAddress "\"eNodeB35%x2ppp4\""
param *.eNodeB14.numX2Apps 17
param *.eNodeB14.x2App[0].client.connectAddress "\"eNodeB1%x2ppp2\""
param *.eNodeB14.x2App[10].client.connectAddress "\"eNodeB11%x2ppp1\""
param *.eNodeB14.x2App[11].client.connectAddress "\"eNodeB34%x2ppp4\""
param *.eNodeB14.x2App[12].client.connectAddress "\"eNodeB37%x2ppp2\""
param *.eNodeB14.x2App[13].client.connectAddress "\"eNodeB40%x2ppp1\""
param *.eNodeB14.x2App[14].client.connectAddress "\"eNodeB42%x2ppp2\""
param *.eNodeB14.x2App[15].client.connectAddress "\"eNodeB43%x2ppp3\""
param *.eNodeB14.x2App[16].client.connectAddress "\"eNodeB50%x2ppp2\""
param *.eNodeB14.x2App[1].client.connectAddress "\"eNodeB41%x2ppp4\""
param *.eNodeB14.x2App[2].client.connectAddress "\"eNodeB66%x2ppp4\""
param *.eNodeB14.x2App[3].client.connectAddress "\"eNodeB22%x2ppp3\""
param *.eNodeB14.x2App[4].client.connectAddress "\"eNodeB27%x2ppp4\""
param *.eNodeB14.x2App[5].client.connectAddress "\"eNodeB45%x2ppp3\""
param *.eNodeB14.x2App[6].client.connectAddress "\"eNodeB54%x2ppp2\""
param *.eNodeB14.x2App[7].client.connectAddress "\"eNodeB58%x2ppp3\""
param *.eNodeB14.x2App[8].client.connectAddress "\"eNodeB6%x2ppp1\""
param *.eNodeB14.x2App[9].client.connectAddress "\"eNodeB9%x2ppp3\""
param *.eNodeB15.numX2Apps 10
param *.eNodeB15.x2App[0].client.connectAddress "\"eNodeB10%x2ppp3\""
param *.eNodeB15.x2App[1].client.connectAddress "\"eNodeB23%x2ppp2\""
param *.eNodeB15.x2App[2].client.connectAddress "\"eNodeB28%x2ppp3\""
param *.eNodeB15.x2App[3].client.connectAddress "\"eNodeB60%x2ppp3\""
param *.eNodeB15.x2App[4].client.connectAddress "\"eNodeB64%x2ppp4\""
param *.eNodeB15.x2App[5].client.connectAddress "\"eNodeB24%x2ppp0\""
param *.eNodeB15.x2App[6].client.connectAddress "\"eNodeB57%x2ppp4\""
param *.eNodeB15.x2App[7].client.connectAddress "\"eNodeB59%x2ppp0\""
param *.eNodeB15.x2App[8].client.connectAddress "\"eNodeB16%x2ppp1\""
param *.eNodeB15.x2App[9].client.connectAddress "\"eNodeB65%x2ppp2\""
param *.eNodeB16.numX2Apps 7
param *.eNodeB16.x2App[0].client.connectAddress "\"eNodeB7%x2ppp5\""
param *.eNodeB16.x2App[1].client.connectAddress "\"eNodeB15%x2ppp1\""
param *.eNodeB16.x2App[2].client.connectAddress "\"eNodeB21%x2ppp0\""
param *.eNodeB16.x2App[3].client.connectAddress "\"eNodeB23%x2ppp3\""
param *.eNodeB16.x2App[4].client.connectAddress "\"eNodeB59%x2ppp1\""
param *.eNodeB16.x2App[5].client.connectAddress "\"eNodeB61%x2ppp0\""
param *.eNodeB16.x2App[6].client.connectAddress "\"eNodeB64%x2ppp5\""
param *.eNodeB17.numX2Apps 8
param *.eNodeB17.x2App[0].client.connectAddress "\"eNodeB4%x2ppp0\""
param *.eNodeB17.x2App[1].client.connectAddress "\"eNodeB20%x2ppp1\""
param *.eNodeB17.x2App[2].client.connectAddress "\"eNodeB49%x2ppp1\""
param *.eNodeB17.x2App[3].client.connectAddress "\"eNodeB56%x2ppp1\""
param *.eNodeB17.x2App[4].client.connectAddress "\"eNodeB29%x2ppp2\""
param *.eNodeB17.x2App[5].client.connectAddress "\"eNodeB51%x2ppp1\""
param *.eNodeB17.x2App[6].client.connectAddress "\"eNodeB52%x2ppp2\""
param *.eNodeB17.x2App[7].client.connectAddress "\"eNodeB55%x2ppp3\""
param *.eNodeB18.numX2Apps 8
param *.eNodeB18.x2App[0].client.connectAddress "\"eNodeB11%x2ppp2\""
param *.eNodeB18.x2App[1].client.connectAddress "\"eNodeB19%x2ppp2\""
param *.eNodeB18.x2App[2].client.connectAddress "\"eNodeB39%x2ppp1\""
param *.eNodeB18.x2App[3].client.connectAddress "\"eNodeB40%x2ppp2\""
param *.eNodeB18.x2App[4].client.connectAddress "\"eNodeB48%x2ppp0\""
param *.eNodeB18.x2App[5].client.connectAddress "\"eNodeB65%x2ppp3\""
param *.eNodeB18.x2App[6].client.connectAddress "\"eNodeB35%x2ppp5\""
param *.eNodeB18.x2App[7].client.connectAddress "\"eNodeB54%x2ppp3\""
param *.eNodeB19.numX2Apps 11
param *.eNodeB19.x2App[0].client.connectAddress "\"eNodeB9%x2ppp4\""
param *.eNodeB19.x2App[10].client.connectAddress "\"eNodeB31%x2ppp6\""
param *.eNodeB19.x2App[1].client.connectAddress "\"eNodeB18%x2ppp1\""
param *.eNodeB19.x2App[2].client.connectAddress "\"eNodeB35%x2ppp6\""
param *.eNodeB19.x2App[3].client.connectAddress "\"eNodeB48%x2ppp1\""
param *.eNodeB19.x2App[4].client.connectAddress "\"eNodeB40%x2ppp3\""
param *.eNodeB19.x2App[5].client.connectAddress "\"eNodeB54%x2ppp4\""
param *.eNodeB19.x2App[6].client.connectAddress "\"eNodeB58%x2ppp4\""
param *.eNodeB19.x2App[7].client.connectAddress "\"eNodeB63%x2ppp4\""
param *.eNodeB19.x2App[8].client.connectAddress "\"eNodeB66%x2ppp5\""
param *.eNodeB19.x2App[9].client.connectAddress "\"eNodeB13%x2ppp4\""
param *.eNodeB2.numX2Apps 13
param *.eNodeB2.x2App[0].client.connectAddress "\"eNodeB5%x2ppp0\""
param *.eNodeB2.x2App[10].client.connectAddress "\"eNodeB47%x2ppp0\""
param *.eNodeB2.x2App[11].client.connectAddress "\"eNodeB13%x2ppp0\""
param *.eNodeB2.x2App[12].client.connectAddress "\"eNodeB34%x2ppp0\""
param *.eNodeB2.x2App[1].client.connectAddress "\"eNodeB7%x2ppp0\""
param *.eNodeB2.x2App[2].client.connectAddress "\"eNodeB32%x2ppp0\""
param *.eNodeB2.x2App[3].client.connectAddress "\"eNodeB8%x2ppp0\""
param *.eNodeB2.x2App[4].client.connectAddress "\"eNodeB9%x2ppp0\""
param *.eNodeB2.x2App[5].client.connectAddress "\"eNodeB23%x2ppp0\""
param *.eNodeB2.x2App[6].client.connectAddress "\"eNodeB25%x2ppp0\""
param *.eNodeB2.x2App[7].client.connectAddress "\"eNodeB30%x2ppp0\""
param *.eNodeB2.x2App[8].client.connectAddress "\"eNodeB31%x2ppp0\""
param *.eNodeB2.x2App[9].client.connectAddress "\"eNodeB46%x2ppp0\""
param *.eNodeB20.numX2Apps 7
param *.eNodeB20.x2App[0].client.connectAddress "\"eNodeB4%x2ppp1\""
param *.eNodeB20.x2App[1].client.connectAddress "\"eNodeB17%x2ppp1\""
param *.eNodeB20.x2App[2].client.connectAddress "\"eNodeB49%x2ppp2\""
param *.eNodeB20.x2App[3].client.connectAddress "\"eNodeB25%x2ppp2\""
param *.eNodeB20.x2App[4].client.connectAddress "\"eNodeB46%x2ppp4\""
param *.eNodeB20.x2App[5].client.connectAddress "\"eNodeB52%x2ppp3\""
param *.eNodeB20.x2App[6].client.connectAddress "\"eNodeB55%x2ppp4\""
param *.eNodeB21.numX2Apps 4
param *.eNodeB21.x2App[0].client.connectAddress "\"eNodeB16%x2ppp2\""
param *.eNodeB21.x2App[1].client.connectAddress "\"eNodeB23%x2ppp4\""
param *.eNodeB21.x2App[2].client.connectAddress "\"eNodeB36%x2ppp1\""
param *.eNodeB21.x2App[3].client.connectAddress "\"eNodeB38%x2ppp2\""
param *.eNodeB22.numX2Apps 14
param *.eNodeB22.x2App[0].client.connectAddress "\"eNodeB1%x2ppp3\""
param *.eNodeB22.x2App[10].client.connectAddress "\"eNodeB42%x2ppp3\""
param *.eNodeB22.x2App[11].client.connectAddress "\"eNodeB45%x2ppp4\""
param *.eNodeB22.x2App[12].client.connectAddress "\"eNodeB50%x2ppp3\""
param *.eNodeB22.x2App[13].client.connectAddress "\"eNodeB58%x2ppp5\""
param *.eNodeB22.x2App[1].client.connectAddress "\"eNodeB11%x2ppp3\""
param *.eNodeB22.x2App[2].client.connectAddress "\"eNodeB14%x2ppp4\""
param *.eNodeB22.x2App[3].client.connectAddress "\"eNodeB54%x2ppp5\""
param *.eNodeB22.x2App[4].client.connectAddress "\"eNodeB41%x2ppp5\""
param *.eNodeB22.x2App[5].client.connectAddress "\"eNodeB43%x2ppp4\""
param *.eNodeB22.x2App[6].client.connectAddress "\"eNodeB66%x2ppp6\""
param *.eNodeB22.x2App[7].client.connectAddress "\"eNodeB6%x2ppp2\""
param *.eNodeB22.x2App[8].client.connectAddress "\"eNodeB37%x2ppp3\""
param *.eNodeB22.x2App[9].client.connectAddress "\"eNodeB40%x2ppp4\""
param *.eNodeB23.numX2Apps 10
param *.eNodeB23.x2App[0].client.connectAddress "\"eNodeB2%x2ppp5\""
param *.eNodeB23.x2App[1].client.connectAddress "\"eNodeB7%x2ppp6\""
param *.eNodeB23.x2App[2].client.connectAddress "\"eNodeB15%x2ppp2\""
param *.eNodeB23.x2App[3].client.connectAddress "\"eNodeB16%x2ppp3\""
param *.eNodeB23.x2App[4].client.connectAddress "\"eNodeB21%x2ppp1\""
param *.eNodeB23.x2App[5].client.connectAddress "\"eNodeB30%x2ppp4\""
param *.eNodeB23.x2App[6].client.connectAddress "\"eNodeB36%x2ppp2\""
param *.eNodeB23.x2App[7].client.connectAddress "\"eNodeB38%x2ppp3\""
param *.eNodeB23.x2App[8].client.connectAddress "\"eNodeB44%x2ppp3\""
param *.eNodeB23.x2App[9].client.connectAddress "\"eNodeB64%x2ppp6\""
param *.eNodeB24.numX2Apps 7
param *.eNodeB24.x2App[0].client.connectAddress "\"eNodeB15%x2ppp3\""
param *.eNodeB24.x2App[1].client.connectAddress "\"eNodeB59%x2ppp2\""
param *.eNodeB24.x2App[2].client.connectAddress "\"eNodeB60%x2ppp4\""
param *.eNodeB24.x2App[3].client.connectAddress "\"eNodeB65%x2ppp4\""
param *.eNodeB24.x2App[4].client.connectAddress "\"eNodeB28%x2ppp4\""
param *.eNodeB24.x2App[5].client.connectAddress "\"eNodeB39%x2ppp2\""
param *.eNodeB24.x2App[6].client.connectAddress "\"eNodeB64%x2ppp7\""
param *.eNodeB25.numX2Apps 12
param *.eNodeB25.x2App[0].client.connectAddress "\"eNodeB2%x2ppp6\""
param *.eNodeB25.x2App[10].client.connectAddress "\"eNodeB55%x2ppp5\""
param *.eNodeB25.x2App[11].client.connectAddress "\"eNodeB29%x2ppp3\""
param *.eNodeB25.x2App[1].client.connectAddress "\"eNodeB5%x2ppp4\""
param *.eNodeB25.x2App[2].client.connectAddress "\"eNodeB20%x2ppp2\""
param *.eNodeB25.x2App[3].client.connectAddress "\"eNodeB46%x2ppp5\""
param *.eNodeB25.x2App[4].client.connectAddress "\"eNodeB52%x2ppp4\""
param *.eNodeB25.x2App[5].client.connectAddress "\"eNodeB32%x2ppp5\""
param *.eNodeB25.x2App[6].client.connectAddress "\"eNodeB34%x2ppp5\""
param *.eNodeB25.x2App[7].client.connectAddress "\"eNodeB49%x2ppp3\""
param *.eNodeB25.x2App[8].client.connectAddress "\"eNodeB51%x2ppp2\""
param *.eNodeB25.x2App[9].client.connectAddress "\"eNodeB53%x2ppp3\""
param *.eNodeB26.numX2Apps 3
param *.eNodeB26.x2App[0].client.connectAddress "\"eNodeB39%x2ppp3\""
param *.eNodeB26.x2App[1].client.connectAddress "\"eNodeB59%x2ppp3\""
param *.eNodeB26.x2App[2].client.connectAddress "\"eNodeB61%x2ppp1\""
param *.eNodeB27.numX2Apps 15
param *.eNodeB27.x2App[0].client.connectAddress "\"eNodeB5%x2ppp5\""
param *.eNodeB27.x2App[10].client.connectAddress "\"eNodeB53%x2ppp4\""
param *.eNodeB27.x2App[11].client.connectAddress "\"eNodeB66%x2ppp7\""
param *.eNodeB27.x2App[12].client.connectAddress "\"eNodeB1%x2ppp4\""
param *.eNodeB27.x2App[13].client.connectAddress "\"eNodeB37%x2ppp4\""
param *.eNodeB27.x2App[14].client.connectAddress "\"eNodeB52%x2ppp5\""
param *.eNodeB27.x2App[1].client.connectAddress "\"eNodeB6%x2ppp3\""
param *.eNodeB27.x2App[2].client.connectAddress "\"eNodeB9%x2ppp5\""
param *.eNodeB27.x2App[3].client.connectAddress "\"eNodeB14%x2ppp5\""
param *.eNodeB27.x2App[4].client.connectAddress "\"eNodeB34%x2ppp6\""
param *.eNodeB27.x2App[5].client.connectAddress "\"eNodeB58%x2ppp6\""
param *.eNodeB27.x2App[6].client.connectAddress "\"eNodeB29%x2ppp4\""
param *.eNodeB27.x2App[7].client.connectAddress "\"eNodeB41%x2ppp6\""
param *.eNodeB27.x2App[8].client.connectAddress "\"eNodeB45%x2ppp5\""
param *.eNodeB27.x2App[9].client.connectAddress "\"eNodeB50%x2ppp4\""
param *.eNodeB28.numX2Apps 13
param *.eNodeB28.x2App[0].client.connectAddress "\"eNodeB10%x2ppp4\""
param *.eNodeB28.x2App[10].client.connectAddress "\"eNodeB59%x2ppp4\""
param *.eNodeB28.x2App[11].client.connectAddress "\"eNodeB63%x2ppp5\""
param *.eNodeB28.x2App[12].client.connectAddress "\"eNodeB65%x2ppp5\""
param *.eNodeB28.x2App[1].client.connectAddress "\"eNodeB15%x2ppp4\""
param *.eNodeB28.x2App[2].client.connectAddress "\"eNodeB24%x2ppp1\""
param *.eNodeB28.x2App[3].client.connectAddress "\"eNodeB60%x2ppp5\""
param *.eNodeB28.x2App[4].client.connectAddress "\"eNodeB64%x2ppp8\""
param *.eNodeB28.x2App[5].client.connectAddress "\"eNodeB57%x2ppp5\""
param *.eNodeB28.x2App[6].client.connectAddress "\"eNodeB8%x2ppp6\""
param *.eNodeB28.x2App[7].client.connectAddress "\"eNodeB13%x2ppp5\""
param *.eNodeB28.x2App[8].client.connectAddress "\"eNodeB31%x2ppp7\""
param *.eNodeB28.x2App[9].client.connectAddress "\"eNodeB47%x2ppp7\""
param *.eNodeB29.numX2Apps 12
param *.eNodeB29.x2App[0].client.connectAddress "\"eNodeB5%x2ppp6\""
param *.eNodeB29.x2App[10].client.connectAddress "\"eNodeB34%x2ppp7\""
param *.eNodeB29.x2App[11].client.connectAddress "\"eNodeB45%x2ppp6\""
param *.eNodeB29.x2App[1].client.connectAddress "\"eNodeB6%x2ppp4\""
param *.eNodeB29.x2App[2].client.connectAddress "\"eNodeB27%x2ppp5\""
param *.eNodeB29.x2App[3].client.connectAddress "\"eNodeB51%x2ppp3\""
param *.eNodeB29.x2App[4].client.connectAddress "\"eNodeB52%x2ppp6\""
param *.eNodeB29.x2App[5].client.connectAddress "\"eNodeB53%x2ppp5\""
param *.eNodeB29.x2App[6].client.connectAddress "\"eNodeB33%x2ppp1\""
param *.eNodeB29.x2App[7].client.connectAddress "\"eNodeB49%x2ppp4\""
param *.eNodeB29.x2App[8].client.connectAddress "\"eNodeB17%x2ppp2\""
param *.eNodeB29.x2App[9].client.connectAddress "\"eNodeB25%x2ppp3\""
param *.eNodeB3.numX2Apps 8
param *.eNodeB3.x2App[0].client.connectAddress "\"eNodeB12%x2ppp0\""
param *.eNodeB3.x2App[1].client.connectAddress "\"eNodeB46%x2ppp1\""
param *.eNodeB3.x2App[2].client.connectAddress "\"eNodeB62%x2ppp0\""
param *.eNodeB3.x2App[3].client.connectAddress "\"eNodeB30%x2ppp1\""
param *.eNodeB3.x2App[4].client.connectAddress "\"eNodeB32%x2ppp1\""
param *.eNodeB3.x2App[5].client.connectAddress "\"eNodeB55%x2ppp0\""
param *.eNodeB3.x2App[6].client.connectAddress "\"eNodeB38%x2ppp0\""
param *.eNodeB3.x2App[7].client.connectAddress "\"eNodeB44%x2ppp0\""
param *.eNodeB30.numX2Apps 11
param *.eNodeB30.x2App[0].client.connectAddress "\"eNodeB2%x2ppp7\""
param *.eNodeB30.x2App[10].client.connectAddress "\"eNodeB55%x2ppp6\""
param *.eNodeB30.x2App[1].client.connectAddress "\"eNodeB3%x2ppp1\""
param *.eNodeB30.x2App[2].client.connectAddress "\"eNodeB7%x2ppp7\""
param *.eNodeB30.x2App[3].client.connectAddress "\"eNodeB23%x2ppp5\""
param *.eNodeB30.x2App[4].client.connectAddress "\"eNodeB32%x2ppp6\""
param *.eNodeB30.x2App[5].client.connectAddress "\"eNodeB62%x2ppp2\""
param *.eNodeB30.x2App[6].client.connectAddress "\"eNodeB38%x2ppp4\""
param *.eNodeB30.x2App[7].client.connectAddress "\"eNodeB44%x2ppp4\""
param *.eNodeB30.x2App[8].client.connectAddress "\"eNodeB46%x2ppp6\""
param *.eNodeB30.x2App[9].client.connectAddress "\"eNodeB12%x2ppp1\""
param *.eNodeB31.numX2Apps 16
param *.eNodeB31.x2App[0].client.connectAddress "\"eNodeB2%x2ppp8\""
param *.eNodeB31.x2App[10].client.connectAddress "\"eNodeB47%x2ppp8\""
param *.eNodeB31.x2App[11].client.connectAddress "\"eNodeB48%x2ppp2\""
param *.eNodeB31.x2App[12].client.connectAddress "\"eNodeB57%x2ppp6\""
param *.eNodeB31.x2App[13].client.connectAddress "\"eNodeB60%x2ppp6\""
param *.eNodeB31.x2App[14].client.connectAddress "\"eNodeB64%x2ppp9\""
param *.eNodeB31.x2App[15].client.connectAddress "\"eNodeB65%x2ppp6\""
param *.eNodeB31.x2App[1].client.connectAddress "\"eNodeB8%x2ppp7\""
param *.eNodeB31.x2App[2].client.connectAddress "\"eNodeB9%x2ppp6\""
param *.eNodeB31.x2App[3].client.connectAddress "\"eNodeB13%x2ppp6\""
param *.eNodeB31.x2App[4].client.connectAddress "\"eNodeB63%x2ppp6\""
param *.eNodeB31.x2App[5].client.connectAddress "\"eNodeB35%x2ppp7\""
param *.eNodeB31.x2App[6].client.connectAddress "\"eNodeB7%x2ppp8\""
param *.eNodeB31.x2App[7].client.connectAddress "\"eNodeB10%x2ppp5\""
param *.eNodeB31.x2App[8].client.connectAddress "\"eNodeB19%x2ppp3\""
param *.eNodeB31.x2App[9].client.connectAddress "\"eNodeB28%x2ppp5\""
param *.eNodeB32.numX2Apps 12
param *.eNodeB32.x2App[0].client.connectAddress "\"eNodeB2%x2ppp9\""
param *.eNodeB32.x2App[10].client.connectAddress "\"eNodeB44%x2ppp5\""
param *.eNodeB32.x2App[11].client.connectAddress "\"eNodeB55%x2ppp7\""
param *.eNodeB32.x2App[1].client.connectAddress "\"eNodeB3%x2ppp2\""
param *.eNodeB32.x2App[2].client.connectAddress "\"eNodeB5%x2ppp7\""
param *.eNodeB32.x2App[3].client.connectAddress "\"eNodeB7%x2ppp9\""
param *.eNodeB32.x2App[4].client.connectAddress "\"eNodeB25%x2ppp4\""
param *.eNodeB32.x2App[5].client.connectAddress "\"eNodeB30%x2ppp5\""
param *.eNodeB32.x2App[6].client.connectAddress "\"eNodeB46%x2ppp7\""
param *.eNodeB32.x2App[7].client.connectAddress "\"eNodeB62%x2ppp3\""
param *.eNodeB32.x2App[8].client.connectAddress "\"eNodeB12%x2ppp2\""
param *.eNodeB32.x2App[9].client.connectAddress "\"eNodeB38%x2ppp5\""
param *.eNodeB33.numX2Apps 10
param *.eNodeB33.x2App[0].client.connectAddress "\"eNodeB6%x2ppp5\""
param *.eNodeB33.x2App[1].client.connectAddress "\"eNodeB29%x2ppp5\""
param *.eNodeB33.x2App[2].client.connectAddress "\"eNodeB51%x2ppp4\""
param *.eNodeB33.x2App[3].client.connectAddress "\"eNodeB37%x2ppp5\""
param *.eNodeB33.x2App[4].client.connectAddress "\"eNodeB42%x2ppp4\""
param *.eNodeB33.x2App[5].client.connectAddress "\"eNodeB53%x2ppp6\""
param *.eNodeB33.x2App[6].client.connectAddress "\"eNodeB56%x2ppp2\""
param *.eNodeB33.x2App[7].client.connectAddress "\"eNodeB45%x2ppp7\""
param *.eNodeB33.x2App[8].client.connectAddress "\"eNodeB50%x2ppp5\""
param *.eNodeB33.x2App[9].client.connectAddress "\"eNodeB52%x2ppp7\""
param *.eNodeB34.numX2Apps 17
param *.eNodeB34.x2App[0].client.connectAddress "\"eNodeB5%x2ppp8\""
param *.eNodeB34.x2App[10].client.connectAddress "\"eNodeB29%x2ppp6\""
param *.eNodeB34.x2App[11].client.connectAddress "\"eNodeB37%x2ppp6\""
param *.eNodeB34.x2App[12].client.connectAddress "\"eNodeB41%x2ppp7\""
param *.eNodeB34.x2App[13].client.connectAddress "\"eNodeB50%x2ppp6\""
param *.eNodeB34.x2App[14].client.connectAddress "\"eNodeB51%x2ppp5\""
param *.eNodeB34.x2App[15].client.connectAddress "\"eNodeB58%x2ppp7\""
param *.eNodeB34.x2App[16].client.connectAddress "\"eNodeB66%x2ppp8\""
param *.eNodeB34.x2App[1].client.connectAddress "\"eNodeB6%x2ppp6\""
param *.eNodeB34.x2App[2].client.connectAddress "\"eNodeB9%x2ppp7\""
param *.eNodeB34.x2App[3].client.connectAddress "\"eNodeB25%x2ppp5\""
param *.eNodeB34.x2App[4].client.connectAddress "\"eNodeB27%x2ppp6\""
param *.eNodeB34.x2App[5].client.connectAddress "\"eNodeB53%x2ppp7\""
param *.eNodeB34.x2App[6].client.connectAddress "\"eNodeB45%x2ppp8\""
param *.eNodeB34.x2App[7].client.connectAddress "\"eNodeB52%x2ppp8\""
param *.eNodeB34.x2App[8].client.connectAddress "\"eNodeB2%x2ppp10\""
param *.eNodeB34.x2App[9].client.connectAddress "\"eNodeB14%x2ppp6\""
param *.eNodeB35.numX2Apps 15
param *.eNodeB35.x2App[0].client.connectAddress "\"eNodeB8%x2ppp8\""
param *.eNodeB35.x2App[10].client.connectAddress "\"eNodeB66%x2ppp9\""
param *.eNodeB35.x2App[11].client.connectAddress "\"eNodeB7%x2ppp10\""
param *.eNodeB35.x2App[12].client.connectAddress "\"eNodeB10%x2ppp6\""
param *.eNodeB35.x2App[13].client.connectAddress "\"eNodeB13%x2ppp7\""
param *.eNodeB35.x2App[14].client.connectAddress "\"eNodeB18%x2ppp2\""
param *.eNodeB35.x2App[1].client.connectAddress "\"eNodeB9%x2ppp8\""
param *.eNodeB35.x2App[2].client.connectAddress "\"eNodeB19%x2ppp4\""
param *.eNodeB35.x2App[3].client.connectAddress "\"eNodeB31%x2ppp8\""
param *.eNodeB35.x2App[4].client.connectAddress "\"eNodeB63%x2ppp7\""
param *.eNodeB35.x2App[5].client.connectAddress "\"eNodeB47%x2ppp9\""
param *.eNodeB35.x2App[6].client.connectAddress "\"eNodeB48%x2ppp3\""
param *.eNodeB35.x2App[7].client.connectAddress "\"eNodeB57%x2ppp7\""
param *.eNodeB35.x2App[8].client.connectAddress "\"eNodeB58%x2ppp8\""
param *.eNodeB35.x2App[9].client.connectAddress "\"eNodeB65%x2ppp7\""
param *.eNodeB36.numX2Apps 6
param *.eNodeB36.x2App[0].client.connectAddress "\"eNodeB12%x2ppp3\""
param *.eNodeB36.x2App[1].client.connectAddress "\"eNodeB21%x2ppp2\""
param *.eNodeB36.x2App[2].client.connectAddress "\"eNodeB23%x2ppp6\""
param *.eNodeB36.x2App[3].client.connectAddress "\"eNodeB38%x2ppp6\""
param *.eNodeB36.x2App[4].client.connectAddress "\"eNodeB62%x2ppp4\""
param *.eNodeB36.x2App[5].client.connectAddress "\"eNodeB44%x2ppp6\""
param *.eNodeB37.numX2Apps 14
param *.eNodeB37.x2App[0].client.connectAddress "\"eNodeB6%x2ppp7\""
param *.eNodeB37.x2App[10].client.connectAddress "\"eNodeB34%x2ppp8\""
param *.eNodeB37.x2App[11].client.connectAddress "\"eNodeB43%x2ppp5\""
param *.eNodeB37.x2App[12].client.connectAddress "\"eNodeB53%x2ppp8\""
param *.eNodeB37.x2App[13].client.connectAddress "\"eNodeB66%x2ppp10\""
param *.eNodeB37.x2App[1].client.connectAddress "\"eNodeB33%x2ppp2\""
param *.eNodeB37.x2App[2].client.connectAddress "\"eNodeB42%x2ppp5\""
param *.eNodeB37.x2App[3].client.connectAddress "\"eNodeB45%x2ppp9\""
param *.eNodeB37.x2App[4].client.connectAddress "\"eNodeB41%x2ppp8\""
param *.eNodeB37.x2App[5].client.connectAddress "\"eNodeB50%x2ppp7\""
param *.eNodeB37.x2App[6].client.connectAddress "\"eNodeB1%x2ppp5\""
param *.eNodeB37.x2App[7].client.connectAddress "\"eNodeB14%x2ppp7\""
param *.eNodeB37.x2App[8].client.connectAddress "\"eNodeB22%x2ppp4\""
param *.eNodeB37.x2App[9].client.connectAddress "\"eNodeB27%x2ppp7\""
param *.eNodeB38.numX2Apps 9
param *.eNodeB38.x2App[0].client.connectAddress "\"eNodeB12%x2ppp4\""
param *.eNodeB38.x2App[1].client.connectAddress "\"eNodeB23%x2ppp7\""
param *.eNodeB38.x2App[2].client.connectAddress "\"eNodeB30%x2ppp6\""
param *.eNodeB38.x2App[3].client.connectAddress "\"eNodeB36%x2ppp3\""
param *.eNodeB38.x2App[4].client.connectAddress "\"eNodeB44%x2ppp7\""
param *.eNodeB38.x2App[5].client.connectAddress "\"eNodeB62%x2ppp5\""
param *.eNodeB38.x2App[6].client.connectAddress "\"eNodeB3%x2ppp3\""
param *.eNodeB38.x2App[7].client.connectAddress "\"eNodeB21%x2ppp3\""
param *.eNodeB38.x2App[8].client.connectAddress "\"eNodeB32%x2ppp7\""
param *.eNodeB39.numX2Apps 8
param *.eNodeB39.x2App[0].client.connectAddress "\"eNodeB11%x2ppp4\""
param *.eNodeB39.x2App[1].client.connectAddress "\"eNodeB18%x2ppp3\""
param *.eNodeB39.x2App[2].client.connectAddress "\"eNodeB24%x2ppp2\""
param *.eNodeB39.x2App[3].client.connectAddress "\"eNodeB26%x2ppp0\""
param *.eNodeB39.x2App[4].client.connectAddress "\"eNodeB40%x2ppp5\""
param *.eNodeB39.x2App[5].client.connectAddress "\"eNodeB59%x2ppp5\""
param *.eNodeB39.x2App[6].client.connectAddress "\"eNodeB65%x2ppp8\""
param *.eNodeB39.x2App[7].client.connectAddress "\"eNodeB61%x2ppp2\""
param *.eNodeB4.numX2Apps 5
param *.eNodeB4.x2App[0].client.connectAddress "\"eNodeB17%x2ppp0\""
param *.eNodeB4.x2App[1].client.connectAddress "\"eNodeB20%x2ppp0\""
param *.eNodeB4.x2App[2].client.connectAddress "\"eNodeB55%x2ppp1\""
param *.eNodeB4.x2App[3].client.connectAddress "\"eNodeB56%x2ppp0\""
param *.eNodeB4.x2App[4].client.connectAddress "\"eNodeB49%x2ppp0\""
param *.eNodeB40.numX2Apps 10
param *.eNodeB40.x2App[0].client.connectAddress "\"eNodeB11%x2ppp5\""
param *.eNodeB40.x2App[1].client.connectAddress "\"eNodeB18%x2ppp4\""
param *.eNodeB40.x2App[2].client.connectAddress "\"eNodeB19%x2ppp5\""
param *.eNodeB40.x2App[3].client.connectAddress "\"eNodeB39%x2ppp4\""
param *.eNodeB40.x2App[4].client.connectAddress "\"eNodeB54%x2ppp6\""
param *.eNodeB40.x2App[5].client.connectAddress "\"eNodeB58%x2ppp9\""
param *.eNodeB40.x2App[6].client.connectAddress "\"eNodeB66%x2ppp11\""
param *.eNodeB40.x2App[7].client.connectAddress "\"eNodeB14%x2ppp8\""
param *.eNodeB40.x2App[8].client.connectAddress "\"eNodeB22%x2ppp5\""
param *.eNodeB40.x2App[9].client.connectAddress "\"eNodeB48%x2ppp4\""
param *.eNodeB41.numX2Apps 16
param *.eNodeB41.x2App[0].client.connectAddress "\"eNodeB1%x2ppp6\""
param *.eNodeB41.x2App[10].client.connectAddress "\"eNodeB9%x2ppp9\""
param *.eNodeB41.x2App[11].client.connectAddress "\"eNodeB11%x2ppp6\""
param *.eNodeB41.x2App[12].client.connectAddress "\"eNodeB34%x2ppp9\""
param *.eNodeB41.x2App[13].client.connectAddress "\"eNodeB42%x2ppp6\""
param *.eNodeB41.x2App[14].client.connectAddress "\"eNodeB43%x2ppp6\""
param *.eNodeB41.x2App[15].client.connectAddress "\"eNodeB54%x2ppp7\""
param *.eNodeB41.x2App[1].client.connectAddress "\"eNodeB14%x2ppp9\""
param *.eNodeB41.x2App[2].client.connectAddress "\"eNodeB22%x2ppp6\""
param *.eNodeB41.x2App[3].client.connectAddress "\"eNodeB27%x2ppp8\""
param *.eNodeB41.x2App[4].client.connectAddress "\"eNodeB37%x2ppp7\""
param *.eNodeB41.x2App[5].client.connectAddress "\"eNodeB50%x2ppp8\""
param *.eNodeB41.x2App[6].client.connectAddress "\"eNodeB45%x2ppp10\""
param *.eNodeB41.x2App[7].client.connectAddress "\"eNodeB58%x2ppp10\""
param *.eNodeB41.x2App[8].client.connectAddress "\"eNodeB66%x2ppp12\""
param *.eNodeB41.x2App[9].client.connectAddress "\"eNodeB6%x2ppp8\""
param *.eNodeB42.numX2Apps 11
param *.eNodeB42.x2App[0].client.connectAddress "\"eNodeB6%x2ppp9\""
param *.eNodeB42.x2App[10].client.connectAddress "\"eNodeB66%x2ppp13\""
param *.eNodeB42.x2App[1].client.connectAddress "\"eNodeB33%x2ppp3\""
param *.eNodeB42.x2App[2].client.connectAddress "\"eNodeB37%x2ppp8\""
param *.eNodeB42.x2App[3].client.connectAddress "\"eNodeB50%x2ppp9\""
param *.eNodeB42.x2App[4].client.connectAddress "\"eNodeB43%x2ppp7\""
param *.eNodeB42.x2App[5].client.connectAddress "\"eNodeB1%x2ppp7\""
param *.eNodeB42.x2App[6].client.connectAddress "\"eNodeB14%x2ppp10\""
param *.eNodeB42.x2App[7].client.connectAddress "\"eNodeB22%x2ppp7\""
param *.eNodeB42.x2App[8].client.connectAddress "\"eNodeB41%x2ppp9\""
param *.eNodeB42.x2App[9].client.connectAddress "\"eNodeB45%x2ppp11\""
param *.eNodeB43.numX2Apps 12
param *.eNodeB43.x2App[0].client.connectAddress "\"eNodeB1%x2ppp8\""
param *.eNodeB43.x2App[10].client.connectAddress "\"eNodeB54%x2ppp8\""
param *.eNodeB43.x2App[11].client.connectAddress "\"eNodeB66%x2ppp14\""
param *.eNodeB43.x2App[1].client.connectAddress "\"eNodeB11%x2ppp7\""
param *.eNodeB43.x2App[2].client.connectAddress "\"eNodeB22%x2ppp8\""
param *.eNodeB43.x2App[3].client.connectAddress "\"eNodeB42%x2ppp7\""
param *.eNodeB43.x2App[4].client.connectAddress "\"eNodeB50%x2ppp10\""
param *.eNodeB43.x2App[5].client.connectAddress "\"eNodeB6%x2ppp10\""
param *.eNodeB43.x2App[6].client.connectAddress "\"eNodeB14%x2ppp11\""
param *.eNodeB43.x2App[7].client.connectAddress "\"eNodeB37%x2ppp9\""
param *.eNodeB43.x2App[8].client.connectAddress "\"eNodeB41%x2ppp10\""
param *.eNodeB43.x2App[9].client.connectAddress "\"eNodeB45%x2ppp12\""
param *.eNodeB44.numX2Apps 9
param *.eNodeB44.x2App[0].client.connectAddress "\"eNodeB7%x2ppp11\""
param *.eNodeB44.x2App[1].client.connectAddress "\"eNodeB23%x2ppp8\""
param *.eNodeB44.x2App[2].client.connectAddress "\"eNodeB30%x2ppp7\""
param *.eNodeB44.x2App[3].client.connectAddress "\"eNodeB38%x2ppp7\""
param *.eNodeB44.x2App[4].client.connectAddress "\"eNodeB62%x2ppp6\""
param *.eNodeB44.x2App[5].client.connectAddress "\"eNodeB3%x2ppp4\""
param *.eNodeB44.x2App[6].client.connectAddress "\"eNodeB12%x2ppp5\""
param *.eNodeB44.x2App[7].client.connectAddress "\"eNodeB32%x2ppp8\""
param *.eNodeB44.x2App[8].client.connectAddress "\"eNodeB36%x2ppp4\""
param *.eNodeB45.numX2Apps 19
param *.eNodeB45.x2App[0].client.connectAddress "\"eNodeB6%x2ppp11\""
param *.eNodeB45.x2App[10].client.connectAddress "\"eNodeB1%x2ppp9\""
param *.eNodeB45.x2App[11].client.connectAddress "\"eNodeB9%x2ppp10\""
param *.eNodeB45.x2App[12].client.connectAddress "\"eNodeB22%x2ppp9\""
param *.eNodeB45.x2App[13].client.connectAddress "\"eNodeB29%x2ppp7\""
param *.eNodeB45.x2App[14].client.connectAddress "\"eNodeB33%x2ppp4\""
param *.eNodeB45.x2App[15].client.connectAddress "\"eNodeB42%x2ppp8\""
param *.eNodeB45.x2App[16].client.connectAddress "\"eNodeB43%x2ppp8\""
param *.eNodeB45.x2App[17].client.connectAddress "\"eNodeB51%x2ppp6\""
param *.eNodeB45.x2App[18].client.connectAddress "\"eNodeB52%x2ppp9\""
param *.eNodeB45.x2App[1].client.connectAddress "\"eNodeB14%x2ppp12\""
param *.eNodeB45.x2App[2].client.connectAddress "\"eNodeB27%x2ppp9\""
param *.eNodeB45.x2App[3].client.connectAddress "\"eNodeB34%x2ppp10\""
param *.eNodeB45.x2App[4].client.connectAddress "\"eNodeB37%x2ppp10\""
param *.eNodeB45.x2App[5].client.connectAddress "\"eNodeB41%x2ppp11\""
param *.eNodeB45.x2App[6].client.connectAddress "\"eNodeB50%x2ppp11\""
param *.eNodeB45.x2App[7].client.connectAddress "\"eNodeB53%x2ppp9\""
param *.eNodeB45.x2App[8].client.connectAddress "\"eNodeB58%x2ppp11\""
param *.eNodeB45.x2App[9].client.connectAddress "\"eNodeB66%x2ppp15\""
param *.eNodeB46.numX2Apps 10
param *.eNodeB46.x2App[0].client.connectAddress "\"eNodeB2%x2ppp11\""
param *.eNodeB46.x2App[1].client.connectAddress "\"eNodeB3%x2ppp5\""
param *.eNodeB46.x2App[2].client.connectAddress "\"eNodeB5%x2ppp9\""
param *.eNodeB46.x2App[3].client.connectAddress "\"eNodeB20%x2ppp3\""
param *.eNodeB46.x2App[4].client.connectAddress "\"eNodeB25%x2ppp6\""
param *.eNodeB46.x2App[5].client.connectAddress "\"eNodeB30%x2ppp8\""
param *.eNodeB46.x2App[6].client.connectAddress "\"eNodeB32%x2ppp9\""
param *.eNodeB46.x2App[7].client.connectAddress "\"eNodeB55%x2ppp8\""
param *.eNodeB46.x2App[8].client.connectAddress "\"eNodeB62%x2ppp7\""
param *.eNodeB46.x2App[9].client.connectAddress "\"eNodeB12%x2ppp6\""
param *.eNodeB47.numX2Apps 13
param *.eNodeB47.x2App[0].client.connectAddress "\"eNodeB2%x2ppp12\""
param *.eNodeB47.x2App[10].client.connectAddress "\"eNodeB31%x2ppp9\""
param *.eNodeB47.x2App[11].client.connectAddress "\"eNodeB57%x2ppp8\""
param *.eNodeB47.x2App[12].client.connectAddress "\"eNodeB63%x2ppp8\""
param *.eNodeB47.x2App[1].client.connectAddress "\"eNodeB5%x2ppp10\""
param *.eNodeB47.x2App[2].client.connectAddress "\"eNodeB7%x2ppp12\""
param *.eNodeB47.x2App[3].client.connectAddress "\"eNodeB8%x2ppp9\""
param *.eNodeB47.x2App[4].client.connectAddress "\"eNodeB9%x2ppp11\""
param *.eNodeB47.x2App[5].client.connectAddress "\"eNodeB10%x2ppp7\""
param *.eNodeB47.x2App[6].client.connectAddress "\"eNodeB35%x2ppp8\""
param *.eNodeB47.x2App[7].client.connectAddress "\"eNodeB64%x2ppp10\""
param *.eNodeB47.x2App[8].client.connectAddress "\"eNodeB13%x2ppp8\""
param *.eNodeB47.x2App[9].client.connectAddress "\"eNodeB28%x2ppp6\""
param *.eNodeB48.numX2Apps 10
param *.eNodeB48.x2App[0].client.connectAddress "\"eNodeB18%x2ppp5\""
param *.eNodeB48.x2App[1].client.connectAddress "\"eNodeB19%x2ppp6\""
param *.eNodeB48.x2App[2].client.connectAddress "\"eNodeB35%x2ppp9\""
param *.eNodeB48.x2App[3].client.connectAddress "\"eNodeB57%x2ppp9\""
param *.eNodeB48.x2App[4].client.connectAddress "\"eNodeB60%x2ppp7\""
param *.eNodeB48.x2App[5].client.connectAddress "\"eNodeB63%x2ppp9\""
param *.eNodeB48.x2App[6].client.connectAddress "\"eNodeB65%x2ppp9\""
param *.eNodeB48.x2App[7].client.connectAddress "\"eNodeB31%x2ppp10\""
param *.eNodeB48.x2App[8].client.connectAddress "\"eNodeB40%x2ppp6\""
param *.eNodeB48.x2App[9].client.connectAddress "\"eNodeB58%x2ppp12\""
param *.eNodeB49.numX2Apps 8
param *.eNodeB49.x2App[0].client.connectAddress "\"eNodeB17%x2ppp3\""
param *.eNodeB49.x2App[1].client.connectAddress "\"eNodeB20%x2ppp4\""
param *.eNodeB49.x2App[2].client.connectAddress "\"eNodeB25%x2ppp7\""
param *.eNodeB49.x2App[3].client.connectAddress "\"eNodeB29%x2ppp8\""
param *.eNodeB49.x2App[4].client.connectAddress "\"eNodeB51%x2ppp7\""
param *.eNodeB49.x2App[5].client.connectAddress "\"eNodeB52%x2ppp10\""
param *.eNodeB49.x2App[6].client.connectAddress "\"eNodeB56%x2ppp3\""
param *.eNodeB49.x2App[7].client.connectAddress "\"eNodeB4%x2ppp2\""
param *.eNodeB5.numX2Apps 13
param *.eNodeB5.x2App[0].client.connectAddress "\"eNodeB2%x2ppp0\""
param *.eNodeB5.x2App[10].client.connectAddress "\"eNodeB47%x2ppp1\""
param *.eNodeB5.x2App[11].client.connectAddress "\"eNodeB52%x2ppp0\""
param *.eNodeB5.x2App[12].client.connectAddress "\"eNodeB53%x2ppp0\""
param *.eNodeB5.x2App[1].client.connectAddress "\"eNodeB25%x2ppp1\""
param *.eNodeB5.x2App[2].client.connectAddress "\"eNodeB34%x2ppp1\""
param *.eNodeB5.x2App[3].client.connectAddress "\"eNodeB7%x2ppp1\""
param *.eNodeB5.x2App[4].client.connectAddress "\"eNodeB8%x2ppp1\""
param *.eNodeB5.x2App[5].client.connectAddress "\"eNodeB9%x2ppp1\""
param *.eNodeB5.x2App[6].client.connectAddress "\"eNodeB27%x2ppp1\""
param *.eNodeB5.x2App[7].client.connectAddress "\"eNodeB29%x2ppp0\""
param *.eNodeB5.x2App[8].client.connectAddress "\"eNodeB32%x2ppp2\""
param *.eNodeB5.x2App[9].client.connectAddress "\"eNodeB46%x2ppp2\""
param *.eNodeB50.numX2Apps 15
param *.eNodeB50.x2App[0].client.connectAddress "\"eNodeB1%x2ppp10\""
param *.eNodeB50.x2App[10].client.connectAddress "\"eNodeB33%x2ppp5\""
param *.eNodeB50.x2App[11].client.connectAddress "\"eNodeB34%x2ppp11\""
param *.eNodeB50.x2App[12].client.connectAddress "\"eNodeB54%x2ppp9\""
param *.eNodeB50.x2App[13].client.connectAddress "\"eNodeB58%x2ppp13\""
param *.eNodeB50.x2App[14].client.connectAddress "\"eNodeB66%x2ppp16\""
param *.eNodeB50.x2App[1].client.connectAddress "\"eNodeB27%x2ppp10\""
param *.eNodeB50.x2App[2].client.connectAddress "\"eNodeB37%x2ppp11\""
param *.eNodeB50.x2App[3].client.connectAddress "\"eNodeB41%x2ppp12\""
param *.eNodeB50.x2App[4].client.connectAddress "\"eNodeB42%x2ppp9\""
param *.eNodeB50.x2App[5].client.connectAddress "\"eNodeB43%x2ppp9\""
param *.eNodeB50.x2App[6].client.connectAddress "\"eNodeB45%x2ppp13\""
param *.eNodeB50.x2App[7].client.connectAddress "\"eNodeB6%x2ppp12\""
param *.eNodeB50.x2App[8].client.connectAddress "\"eNodeB14%x2ppp13\""
param *.eNodeB50.x2App[9].client.connectAddress "\"eNodeB22%x2ppp10\""
param *.eNodeB51.numX2Apps 11
param *.eNodeB51.x2App[0].client.connectAddress "\"eNodeB25%x2ppp8\""
param *.eNodeB51.x2App[10].client.connectAddress "\"eNodeB45%x2ppp14\""
param *.eNodeB51.x2App[1].client.connectAddress "\"eNodeB29%x2ppp9\""
param *.eNodeB51.x2App[2].client.connectAddress "\"eNodeB33%x2ppp6\""
param *.eNodeB51.x2App[3].client.connectAddress "\"eNodeB49%x2ppp5\""
param *.eNodeB51.x2App[4].client.connectAddress "\"eNodeB52%x2ppp11\""
param *.eNodeB51.x2App[5].client.connectAddress "\"eNodeB53%x2ppp10\""
param *.eNodeB51.x2App[6].client.connectAddress "\"eNodeB56%x2ppp4\""
param *.eNodeB51.x2App[7].client.connectAddress "\"eNodeB6%x2ppp13\""
param *.eNodeB51.x2App[8].client.connectAddress "\"eNodeB17%x2ppp4\""
param *.eNodeB51.x2App[9].client.connectAddress "\"eNodeB34%x2ppp12\""
param *.eNodeB52.numX2Apps 13
param *.eNodeB52.x2App[0].client.connectAddress "\"eNodeB5%x2ppp11\""
param *.eNodeB52.x2App[10].client.connectAddress "\"eNodeB27%x2ppp11\""
param *.eNodeB52.x2App[11].client.connectAddress "\"eNodeB33%x2ppp7\""
param *.eNodeB52.x2App[12].client.connectAddress "\"eNodeB45%x2ppp15\""
param *.eNodeB52.x2App[1].client.connectAddress "\"eNodeB6%x2ppp14\""
param *.eNodeB52.x2App[2].client.connectAddress "\"eNodeB20%x2ppp5\""
param *.eNodeB52.x2App[3].client.connectAddress "\"eNodeB25%x2ppp9\""
param *.eNodeB52.x2App[4].client.connectAddress "\"eNodeB29%x2ppp10\""
param *.eNodeB52.x2App[5].client.connectAddress "\"eNodeB34%x2ppp13\""
param *.eNodeB52.x2App[6].client.connectAddress "\"eNodeB49%x2ppp6\""
param *.eNodeB52.x2App[7].client.connectAddress "\"eNodeB51%x2ppp8\""
param *.eNodeB52.x2App[8].client.connectAddress "\"eNodeB53%x2ppp11\""
param *.eNodeB52.x2App[9].client.connectAddress "\"eNodeB17%x2ppp5\""
param *.eNodeB53.numX2Apps 13
param *.eNodeB53.x2App[0].client.connectAddress "\"eNodeB5%x2ppp12\""
param *.eNodeB53.x2App[10].client.connectAddress "\"eNodeB9%x2ppp12\""
param *.eNodeB53.x2App[11].client.connectAddress "\"eNodeB37%x2ppp12\""
param *.eNodeB53.x2App[12].client.connectAddress "\"eNodeB58%x2ppp14\""
param *.eNodeB53.x2App[1].client.connectAddress "\"eNodeB6%x2ppp15\""
param *.eNodeB53.x2App[2].client.connectAddress "\"eNodeB25%x2ppp10\""
param *.eNodeB53.x2App[3].client.connectAddress "\"eNodeB27%x2ppp12\""
param *.eNodeB53.x2App[4].client.connectAddress "\"eNodeB29%x2ppp11\""
param *.eNodeB53.x2App[5].client.connectAddress "\"eNodeB33%x2ppp8\""
param *.eNodeB53.x2App[6].client.connectAddress "\"eNodeB34%x2ppp14\""
param *.eNodeB53.x2App[7].client.connectAddress "\"eNodeB45%x2ppp16\""
param *.eNodeB53.x2App[8].client.connectAddress "\"eNodeB51%x2ppp9\""
param *.eNodeB53.x2App[9].client.connectAddress "\"eNodeB52%x2ppp12\""
param *.eNodeB54.numX2Apps 12
param *.eNodeB54.x2App[0].client.connectAddress "\"eNodeB11%x2ppp8\""
param *.eNodeB54.x2App[10].client.connectAddress "\"eNodeB43%x2ppp10\""
param *.eNodeB54.x2App[11].client.connectAddress "\"eNodeB50%x2ppp12\""
param *.eNodeB54.x2App[1].client.connectAddress "\"eNodeB14%x2ppp14\""
param *.eNodeB54.x2App[2].client.connectAddress "\"eNodeB19%x2ppp7\""
param *.eNodeB54.x2App[3].client.connectAddress "\"eNodeB22%x2ppp11\""
param *.eNodeB54.x2App[4].client.connectAddress "\"eNodeB40%x2ppp7\""
param *.eNodeB54.x2App[5].client.connectAddress "\"eNodeB58%x2ppp15\""
param *.eNodeB54.x2App[6].client.connectAddress "\"eNodeB66%x2ppp17\""
param *.eNodeB54.x2App[7].client.connectAddress "\"eNodeB1%x2ppp11\""
param *.eNodeB54.x2App[8].client.connectAddress "\"eNodeB18%x2ppp6\""
param *.eNodeB54.x2App[9].client.connectAddress "\"eNodeB41%x2ppp13\""
param *.eNodeB55.numX2Apps 10
param *.eNodeB55.x2App[0].client.connectAddress "\"eNodeB3%x2ppp6\""
param *.eNodeB55.x2App[1].client.connectAddress "\"eNodeB4%x2ppp3\""
param *.eNodeB55.x2App[2].client.connectAddress "\"eNodeB12%x2ppp7\""
param *.eNodeB55.x2App[3].client.connectAddress "\"eNodeB20%x2ppp6\""
param *.eNodeB55.x2App[4].client.connectAddress "\"eNodeB25%x2ppp11\""
param *.eNodeB55.x2App[5].client.connectAddress "\"eNodeB46%x2ppp8\""
param *.eNodeB55.x2App[6].client.connectAddress "\"eNodeB17%x2ppp6\""
param *.eNodeB55.x2App[7].client.connectAddress "\"eNodeB30%x2ppp9\""
param *.eNodeB55.x2App[8].client.connectAddress "\"eNodeB32%x2ppp10\""
param *.eNodeB55.x2App[9].client.connectAddress "\"eNodeB62%x2ppp8\""
param *.eNodeB56.numX2Apps 5
param *.eNodeB56.x2App[0].client.connectAddress "\"eNodeB4%x2ppp4\""
param *.eNodeB56.x2App[1].client.connectAddress "\"eNodeB17%x2ppp7\""
param *.eNodeB56.x2App[2].client.connectAddress "\"eNodeB33%x2ppp9\""
param *.eNodeB56.x2App[3].client.connectAddress "\"eNodeB49%x2ppp7\""
param *.eNodeB56.x2App[4].client.connectAddress "\"eNodeB51%x2ppp10\""
param *.eNodeB57.numX2Apps 14
param *.eNodeB57.x2App[0].client.connectAddress "\"eNodeB10%x2ppp8\""
param *.eNodeB57.x2App[10].client.connectAddress "\"eNodeB7%x2ppp13\""
param *.eNodeB57.x2App[11].client.connectAddress "\"eNodeB8%x2ppp10\""
param *.eNodeB57.x2App[12].client.connectAddress "\"eNodeB31%x2ppp11\""
param *.eNodeB57.x2App[13].client.connectAddress "\"eNodeB47%x2ppp10\""
param *.eNodeB57.x2App[1].client.connectAddress "\"eNodeB13%x2ppp9\""
param *.eNodeB57.x2App[2].client.connectAddress "\"eNodeB15%x2ppp5\""
param *.eNodeB57.x2App[3].client.connectAddress "\"eNodeB28%x2ppp7\""
param *.eNodeB57.x2App[4].client.connectAddress "\"eNodeB35%x2ppp10\""
param *.eNodeB57.x2App[5].client.connectAddress "\"eNodeB48%x2ppp5\""
param *.eNodeB57.x2App[6].client.connectAddress "\"eNodeB63%x2ppp10\""
param *.eNodeB57.x2App[7].client.connectAddress "\"eNodeB60%x2ppp8\""
param *.eNodeB57.x2App[8].client.connectAddress "\"eNodeB64%x2ppp11\""
param *.eNodeB57.x2App[9].client.connectAddress "\"eNodeB65%x2ppp10\""
param *.eNodeB58.numX2Apps 17
param *.eNodeB58.x2App[0].client.connectAddress "\"eNodeB9%x2ppp13\""
param *.eNodeB58.x2App[10].client.connectAddress "\"eNodeB1%x2ppp12\""
param *.eNodeB58.x2App[11].client.connectAddress "\"eNodeB6%x2ppp16\""
param *.eNodeB58.x2App[12].client.connectAddress "\"eNodeB22%x2ppp12\""
param *.eNodeB58.x2App[13].client.connectAddress "\"eNodeB34%x2ppp15\""
param *.eNodeB58.x2App[14].client.connectAddress "\"eNodeB48%x2ppp6\""
param *.eNodeB58.x2App[15].client.connectAddress "\"eNodeB50%x2ppp13\""
param *.eNodeB58.x2App[16].client.connectAddress "\"eNodeB53%x2ppp12\""
param *.eNodeB58.x2App[1].client.connectAddress "\"eNodeB14%x2ppp15\""
param *.eNodeB58.x2App[2].client.connectAddress "\"eNodeB19%x2ppp8\""
param *.eNodeB58.x2App[3].client.connectAddress "\"eNodeB27%x2ppp13\""
param *.eNodeB58.x2App[4].client.connectAddress "\"eNodeB35%x2ppp11\""
param *.eNodeB58.x2App[5].client.connectAddress "\"eNodeB40%x2ppp8\""
param *.eNodeB58.x2App[6].client.connectAddress "\"eNodeB41%x2ppp14\""
param *.eNodeB58.x2App[7].client.connectAddress "\"eNodeB45%x2ppp17\""
param *.eNodeB58.x2App[8].client.connectAddress "\"eNodeB54%x2ppp10\""
param *.eNodeB58.x2App[9].client.connectAddress "\"eNodeB66%x2ppp18\""
param *.eNodeB59.numX2Apps 10
param *.eNodeB59.x2App[0].client.connectAddress "\"eNodeB15%x2ppp6\""
param *.eNodeB59.x2App[1].client.connectAddress "\"eNodeB16%x2ppp4\""
param *.eNodeB59.x2App[2].client.connectAddress "\"eNodeB24%x2ppp3\""
param *.eNodeB59.x2App[3].client.connectAddress "\"eNodeB26%x2ppp1\""
param *.eNodeB59.x2App[4].client.connectAddress "\"eNodeB39%x2ppp5\""
param *.eNodeB59.x2App[5].client.connectAddress "\"eNodeB61%x2ppp3\""
param *.eNodeB59.x2App[6].client.connectAddress "\"eNodeB28%x2ppp8\""
param *.eNodeB59.x2App[7].client.connectAddress "\"eNodeB60%x2ppp9\""
param *.eNodeB59.x2App[8].client.connectAddress "\"eNodeB65%x2ppp11\""
param *.eNodeB59.x2App[9].client.connectAddress "\"eNodeB64%x2ppp12\""
param *.eNodeB6.numX2Apps 18
param *.eNodeB6.x2App[0].client.connectAddress "\"eNodeB37%x2ppp1\""
param *.eNodeB6.x2App[10].client.connectAddress "\"eNodeB50%x2ppp1\""
param *.eNodeB6.x2App[11].client.connectAddress "\"eNodeB14%x2ppp1\""
param *.eNodeB6.x2App[12].client.connectAddress "\"eNodeB22%x2ppp1\""
param *.eNodeB6.x2App[13].client.connectAddress "\"eNodeB41%x2ppp1\""
param *.eNodeB6.x2App[14].client.connectAddress "\"eNodeB43%x2ppp1\""
param *.eNodeB6.x2App[15].client.connectAddress "\"eNodeB51%x2ppp0\""
param *.eNodeB6.x2App[16].client.connectAddress "\"eNodeB58%x2ppp1\""
param *.eNodeB6.x2App[17].client.connectAddress "\"eNodeB66%x2ppp1\""
param *.eNodeB6.x2App[1].client.connectAddress "\"eNodeB45%x2ppp1\""
param *.eNodeB6.x2App[2].client.connectAddress "\"eNodeB27%x2ppp2\""
param *.eNodeB6.x2App[3].client.connectAddress "\"eNodeB29%x2ppp1\""
param *.eNodeB6.x2App[4].client.connectAddress "\"eNodeB33%x2ppp0\""
param *.eNodeB6.x2App[5].client.connectAddress "\"eNodeB34%x2ppp2\""
param *.eNodeB6.x2App[6].client.connectAddress "\"eNodeB42%x2ppp1\""
param *.eNodeB6.x2App[7].client.connectAddress "\"eNodeB52%x2ppp1\""
param *.eNodeB6.x2App[8].client.connectAddress "\"eNodeB53%x2ppp1\""
param *.eNodeB6.x2App[9].client.connectAddress "\"eNodeB1%x2ppp0\""
param *.eNodeB60.numX2Apps 13
param *.eNodeB60.x2App[0].client.connectAddress "\"eNodeB15%x2ppp7\""
param *.eNodeB60.x2App[10].client.connectAddress "\"eNodeB59%x2ppp6\""
param *.eNodeB60.x2App[11].client.connectAddress "\"eNodeB63%x2ppp11\""
param *.eNodeB60.x2App[12].client.connectAddress "\"eNodeB64%x2ppp13\""
param *.eNodeB60.x2App[1].client.connectAddress "\"eNodeB24%x2ppp4\""
param *.eNodeB60.x2App[2].client.connectAddress "\"eNodeB28%x2ppp9\""
param *.eNodeB60.x2App[3].client.connectAddress "\"eNodeB48%x2ppp7\""
param *.eNodeB60.x2App[4].client.connectAddress "\"eNodeB57%x2ppp10\""
param *.eNodeB60.x2App[5].client.connectAddress "\"eNodeB65%x2ppp12\""
param *.eNodeB60.x2App[6].client.connectAddress "\"eNodeB8%x2ppp11\""
param *.eNodeB60.x2App[7].client.connectAddress "\"eNodeB10%x2ppp9\""
param *.eNodeB60.x2App[8].client.connectAddress "\"eNodeB13%x2ppp10\""
param *.eNodeB60.x2App[9].client.connectAddress "\"eNodeB31%x2ppp12\""
param *.eNodeB61.numX2Apps 4
param *.eNodeB61.x2App[0].client.connectAddress "\"eNodeB16%x2ppp5\""
param *.eNodeB61.x2App[1].client.connectAddress "\"eNodeB26%x2ppp2\""
param *.eNodeB61.x2App[2].client.connectAddress "\"eNodeB39%x2ppp6\""
param *.eNodeB61.x2App[3].client.connectAddress "\"eNodeB59%x2ppp7\""
param *.eNodeB62.numX2Apps 9
param *.eNodeB62.x2App[0].client.connectAddress "\"eNodeB3%x2ppp7\""
param *.eNodeB62.x2App[1].client.connectAddress "\"eNodeB12%x2ppp8\""
param *.eNodeB62.x2App[2].client.connectAddress "\"eNodeB30%x2ppp10\""
param *.eNodeB62.x2App[3].client.connectAddress "\"eNodeB32%x2ppp11\""
param *.eNodeB62.x2App[4].client.connectAddress "\"eNodeB36%x2ppp5\""
param *.eNodeB62.x2App[5].client.connectAddress "\"eNodeB38%x2ppp8\""
param *.eNodeB62.x2App[6].client.connectAddress "\"eNodeB44%x2ppp8\""
param *.eNodeB62.x2App[7].client.connectAddress "\"eNodeB46%x2ppp9\""
param *.eNodeB62.x2App[8].client.connectAddress "\"eNodeB55%x2ppp9\""
param *.eNodeB63.numX2Apps 14
param *.eNodeB63.x2App[0].client.connectAddress "\"eNodeB10%x2ppp10\""
param *.eNodeB63.x2App[10].client.connectAddress "\"eNodeB28%x2ppp10\""
param *.eNodeB63.x2App[11].client.connectAddress "\"eNodeB47%x2ppp11\""
param *.eNodeB63.x2App[12].client.connectAddress "\"eNodeB60%x2ppp10\""
param *.eNodeB63.x2App[13].client.connectAddress "\"eNodeB64%x2ppp14\""
param *.eNodeB63.x2App[1].client.connectAddress "\"eNodeB13%x2ppp11\""
param *.eNodeB63.x2App[2].client.connectAddress "\"eNodeB19%x2ppp9\""
param *.eNodeB63.x2App[3].client.connectAddress "\"eNodeB31%x2ppp13\""
param *.eNodeB63.x2App[4].client.connectAddress "\"eNodeB35%x2ppp12\""
param *.eNodeB63.x2App[5].client.connectAddress "\"eNodeB48%x2ppp8\""
param *.eNodeB63.x2App[6].client.connectAddress "\"eNodeB57%x2ppp11\""
param *.eNodeB63.x2App[7].client.connectAddress "\"eNodeB65%x2ppp13\""
param *.eNodeB63.x2App[8].client.connectAddress "\"eNodeB7%x2ppp14\""
param *.eNodeB63.x2App[9].client.connectAddress "\"eNodeB8%x2ppp12\""
param *.eNodeB64.numX2Apps 16
param *.eNodeB64.x2App[0].client.connectAddress "\"eNodeB7%x2ppp15\""
param *.eNodeB64.x2App[10].client.connectAddress "\"eNodeB24%x2ppp5\""
param *.eNodeB64.x2App[11].client.connectAddress "\"eNodeB31%x2ppp14\""
param *.eNodeB64.x2App[12].client.connectAddress "\"eNodeB59%x2ppp8\""
param *.eNodeB64.x2App[13].client.connectAddress "\"eNodeB60%x2ppp11\""
param *.eNodeB64.x2App[14].client.connectAddress "\"eNodeB63%x2ppp12\""
param *.eNodeB64.x2App[15].client.connectAddress "\"eNodeB65%x2ppp14\""
param *.eNodeB64.x2App[1].client.connectAddress "\"eNodeB10%x2ppp11\""
param *.eNodeB64.x2App[2].client.connectAddress "\"eNodeB15%x2ppp8\""
param *.eNodeB64.x2App[3].client.connectAddress "\"eNodeB16%x2ppp6\""
param *.eNodeB64.x2App[4].client.connectAddress "\"eNodeB23%x2ppp9\""
param *.eNodeB64.x2App[5].client.connectAddress "\"eNodeB28%x2ppp11\""
param *.eNodeB64.x2App[6].client.connectAddress "\"eNodeB47%x2ppp12\""
param *.eNodeB64.x2App[7].client.connectAddress "\"eNodeB57%x2ppp12\""
param *.eNodeB64.x2App[8].client.connectAddress "\"eNodeB8%x2ppp13\""
param *.eNodeB64.x2App[9].client.connectAddress "\"eNodeB13%x2ppp12\""
param *.eNodeB65.numX2Apps 15
param *.eNodeB65.x2App[0].client.connectAddress "\"eNodeB18%x2ppp7\""
param *.eNodeB65.x2App[10].client.connectAddress "\"eNodeB15%x2ppp9\""
param *.eNodeB65.x2App[11].client.connectAddress "\"eNodeB28%x2ppp12\""
param *.eNodeB65.x2App[12].client.connectAddress "\"eNodeB31%x2ppp15\""
param *.eNodeB65.x2App[13].client.connectAddress "\"eNodeB59%x2ppp9\""
param *.eNodeB65.x2App[14].client.connectAddress "\"eNodeB64%x2ppp15\""
param *.eNodeB65.x2App[1].client.connectAddress "\"eNodeB24%x2ppp6\""
param *.eNodeB65.x2App[2].client.connectAddress "\"eNodeB35%x2ppp13\""
param *.eNodeB65.x2App[3].client.connectAddress "\"eNodeB39%x2ppp7\""
param *.eNodeB65.x2App[4].client.connectAddress "\"eNodeB48%x2ppp9\""
param *.eNodeB65.x2App[5].client.connectAddress "\"eNodeB57%x2ppp13\""
param *.eNodeB65.x2App[6].client.connectAddress "\"eNodeB60%x2ppp12\""
param *.eNodeB65.x2App[7].client.connectAddress "\"eNodeB63%x2ppp13\""
param *.eNodeB65.x2App[8].client.connectAddress "\"eNodeB10%x2ppp12\""
param *.eNodeB65.x2App[9].client.connectAddress "\"eNodeB13%x2ppp13\""
param *.eNodeB66.numX2Apps 19
param *.eNodeB66.x2App[0].client.connectAddress "\"eNodeB14%x2ppp16\""
param *.eNodeB66.x2App[10].client.connectAddress "\"eNodeB1%x2ppp13\""
param *.eNodeB66.x2App[11].client.connectAddress "\"eNodeB6%x2ppp17\""
param *.eNodeB66.x2App[12].client.connectAddress "\"eNodeB9%x2ppp14\""
param *.eNodeB66.x2App[13].client.connectAddress "\"eNodeB11%x2ppp9\""
param *.eNodeB66.x2App[14].client.connectAddress "\"eNodeB34%x2ppp16\""
param *.eNodeB66.x2App[15].client.connectAddress "\"eNodeB37%x2ppp13\""
param *.eNodeB66.x2App[16].client.connectAddress "\"eNodeB42%x2ppp10\""
param *.eNodeB66.x2App[17].client.connectAddress "\"eNodeB43%x2ppp11\""
param *.eNodeB66.x2App[18].client.connectAddress "\"eNodeB50%x2ppp14\""
param *.eNodeB66.x2App[1].client.connectAddress "\"eNodeB19%x2ppp10\""
param *.eNodeB66.x2App[2].client.connectAddress "\"eNodeB22%x2ppp13\""
param *.eNodeB66.x2App[3].client.connectAddress "\"eNodeB27%x2ppp14\""
param *.eNodeB66.x2App[4].client.connectAddress "\"eNodeB35%x2ppp14\""
param *.eNodeB66.x2App[5].client.connectAddress "\"eNodeB40%x2ppp9\""
param *.eNodeB66.x2App[6].client.connectAddress "\"eNodeB41%x2ppp15\""
param *.eNodeB66.x2App[7].client.connectAddress "\"eNodeB45%x2ppp18\""
param *.eNodeB66.x2App[8].client.connectAddress "\"eNodeB54%x2ppp11\""
param *.eNodeB66.x2App[9].client.connectAddress "\"eNodeB58%x2ppp16\""
param *.eNodeB7.numX2Apps 16
param *.eNodeB7.x2App[0].client.connectAddress "\"eNodeB2%x2ppp1\""
param *.eNodeB7.x2App[10].client.connectAddress "\"eNodeB8%x2ppp2\""
param *.eNodeB7.x2App[11].client.connectAddress "\"eNodeB13%x2ppp1\""
param *.eNodeB7.x2App[12].client.connectAddress "\"eNodeB31%x2ppp1\""
param *.eNodeB7.x2App[13].client.connectAddress "\"eNodeB35%x2ppp0\""
param *.eNodeB7.x2App[14].client.connectAddress "\"eNodeB57%x2ppp0\""
param *.eNodeB7.x2App[15].client.connectAddress "\"eNodeB63%x2ppp0\""
param *.eNodeB7.x2App[1].client.connectAddress "\"eNodeB5%x2ppp1\""
param *.eNodeB7.x2App[2].client.connectAddress "\"eNodeB16%x2ppp0\""
param *.eNodeB7.x2App[3].client.connectAddress "\"eNodeB23%x2ppp1\""
param *.eNodeB7.x2App[4].client.connectAddress "\"eNodeB44%x2ppp1\""
param *.eNodeB7.x2App[5].client.connectAddress "\"eNodeB47%x2ppp2\""
param *.eNodeB7.x2App[6].client.connectAddress "\"eNodeB10%x2ppp0\""
param *.eNodeB7.x2App[7].client.connectAddress "\"eNodeB30%x2ppp2\""
param *.eNodeB7.x2App[8].client.connectAddress "\"eNodeB32%x2ppp3\""
param *.eNodeB7.x2App[9].client.connectAddress "\"eNodeB64%x2ppp0\""
param *.eNodeB8.numX2Apps 14
param *.eNodeB8.x2App[0].client.connectAddress "\"eNodeB2%x2ppp2\""
param *.eNodeB8.x2App[10].client.connectAddress "\"eNodeB57%x2ppp1\""
param *.eNodeB8.x2App[11].client.connectAddress "\"eNodeB60%x2ppp0\""
param *.eNodeB8.x2App[12].client.connectAddress "\"eNodeB63%x2ppp1\""
param *.eNodeB8.x2App[13].client.connectAddress "\"eNodeB64%x2ppp1\""
param *.eNodeB8.x2App[1].client.connectAddress "\"eNodeB5%x2ppp2\""
param *.eNodeB8.x2App[2].client.connectAddress "\"eNodeB9%x2ppp2\""
param *.eNodeB8.x2App[3].client.connectAddress "\"eNodeB13%x2ppp2\""
param *.eNodeB8.x2App[4].client.connectAddress "\"eNodeB31%x2ppp2\""
param *.eNodeB8.x2App[5].client.connectAddress "\"eNodeB47%x2ppp3\""
param *.eNodeB8.x2App[6].client.connectAddress "\"eNodeB10%x2ppp1\""
param *.eNodeB8.x2App[7].client.connectAddress "\"eNodeB35%x2ppp1\""
param *.eNodeB8.x2App[8].client.connectAddress "\"eNodeB7%x2ppp2\""
param *.eNodeB8.x2App[9].client.connectAddress "\"eNodeB28%x2ppp0\""
param *.eNodeB9.numX2Apps 15
param *.eNodeB9.x2App[0].client.connectAddress "\"eNodeB2%x2ppp3\""
param *.eNodeB9.x2App[10].client.connectAddress "\"eNodeB14%x2ppp2\""
param *.eNodeB9.x2App[11].client.connectAddress "\"eNodeB41%x2ppp2\""
param *.eNodeB9.x2App[12].client.connectAddress "\"eNodeB45%x2ppp2\""
param *.eNodeB9.x2App[13].client.connectAddress "\"eNodeB53%x2ppp2\""
param *.eNodeB9.x2App[14].client.connectAddress "\"eNodeB66%x2ppp2\""
param *.eNodeB9.x2App[1].client.connectAddress "\"eNodeB5%x2ppp3\""
param *.eNodeB9.x2App[2].client.connectAddress "\"eNodeB8%x2ppp3\""
param *.eNodeB9.x2App[3].client.connectAddress "\"eNodeB27%x2ppp3\""
param *.eNodeB9.x2App[4].client.connectAddress "\"eNodeB34%x2ppp3\""
param *.eNodeB9.x2App[5].client.connectAddress "\"eNodeB58%x2ppp2\""
param *.eNodeB9.x2App[6].client.connectAddress "\"eNodeB19%x2ppp0\""
param *.eNodeB9.x2App[7].client.connectAddress "\"eNodeB31%x2ppp3\""
param *.eNodeB9.x2App[8].client.connectAddress "\"eNodeB35%x2ppp2\""
param *.eNodeB9.x2App[9].client.connectAddress "\"eNodeB47%x2ppp4\""
param *.obstacles.debug false
param *.playgroundSizeX 3000m
param *.playgroundSizeY 3000m
param *.playgroundSizeZ 50m
param *.server.numUdpApps 457
param *.server.udpApp[*].destAddress "\"car[\" + string(ancestorIndex(0)) + \"]\""
param *.server.udpApp[*].localPort "3000 + ancestorIndex(0)"
param *.server.udpApp[*].startingTime 0.05s
param *.server.udpApp[*].typename "\"VoIPSender\""
param *.veinsManager.launchConfig "xmldoc(\"erlangen.launchd.xml\")"
param *.veinsManager.moduleDisplayString "\"\""
param *.veinsManager.moduleName "\"car\""
param *.veinsManager.moduleType "\"lte.corenetwork.nodes.cars.Car\""
param *.veinsManager.updateInterval 0.1s

vector 8  ErlangenLTE.server.ppp[0].queue  queueLength:vector  ETV
attr interpolationmode  sample-hold
attr title  "queue length, vector"
vector 9  ErlangenLTE.server.ppp[0].ppp  txState:vector  ETV
attr interpolationmode  sample-hold
attr title  "tx state, vector"
vector 486  ErlangenLTE.router.ppp[0].queue  queueLength:vector  ETV
attr interpolationmode  sample-hold
attr title  "queue length, vector"
vector 487  ErlangenLTE.router.ppp[0].ppp  txState:vector  ETV
attr interpolationmode  sample-hold
attr title  "tx state, vector"
vector 497  ErlangenLTE.router.ppp[1].queue  queueLength:vector  ETV
attr interpolationmode  sample-hold
attr title  "queue length, vector"
vector 498  ErlangenLTE.router.ppp[1].ppp  txState:vector  ETV
attr interpolationmode  sample-hold
attr title  "tx state, vector"
vector 513  ErlangenLTE.pgw.ppp[0].queue  queueLength:vector  ETV
attr interpolationmode  sample-hold
attr title  "queue length, vector"
vector 514  ErlangenLTE.pgw.ppp[0].ppp  txState:vector  ETV
attr interpolationmode  sample-hold
attr title  "tx state, vector"
vector 524  ErlangenLTE.pgw.ppp[1].queue  queueLength:vector  ETV
attr interpolationmode  sample-hold
attr title  "queue length, vector"
vector 525  ErlangenLTE.pgw.ppp[1].ppp  txState:vector  ETV
attr interpolationmode  sample-hold
attr title  "tx state, vector"
vector 535  ErlangenLTE.pgw.ppp[2].queue  queueLength:vector  ETV
attr interpolationmode  sample-hold
attr title  "queue length, vector"
vector 536  ErlangenLTE.pgw.ppp[2].ppp  txState:vector  ETV
attr interpolationmode  sample-hold
attr title  "tx state, vector"
vector 546  ErlangenLTE.pgw.ppp[3].queue  queueLength:vector  ETV
attr interpolationmode  sample-hold
attr title  "queue length, vector"
vector 547  ErlangenLTE.pgw.ppp[3].ppp  txState:vector  ETV
attr interpolationmode  sample-hold
attr title  "tx state, vector"
vector 557  ErlangenLTE.pgw.ppp[4].queue  queueLength:vector  ETV
attr interpolationmode  sample-hold
attr title  "queue length, vector"
vector 558  ErlangenLTE.pgw.ppp[4].ppp  txState:vector  ETV
attr interpolationmode  sample-hold
attr title  "tx state, vector"
vector 568  ErlangenLTE.pgw.ppp[5].queue  queueLength:vector  ETV
attr interpolationmode  sample-hold
attr title  "queue length, vector"
vector 569  ErlangenLTE.pgw.ppp[5].ppp  txState:vector  ETV
attr interpolationmode  sample-hold
attr title  "tx state, vector"
vector 579  ErlangenLTE.pgw.ppp[6].queue  queueLength:vector  ETV
attr interpolationmode  sample-hold
attr title  "queue length, vector"
vector 580  ErlangenLTE.pgw.ppp[6].ppp  txState:vector  ETV
attr interpolationmode  sample-hold
attr title  "tx state, vector"
vector 590  ErlangenLTE.pgw.ppp[7].queue  queueLength:vector  ETV
attr interpolationmode  sample-hold
attr title  "queue length, vector"
vector 591  ErlangenLTE.pgw.ppp[7].ppp  txState:vector  ETV
attr interpolationmode  sample-hold
attr title  "tx state, vector"
vector 601  ErlangenLTE.pgw.ppp[8].queue  queueLength:vector  ETV
attr interpolationmode  sample-hold
attr title  "queue length, vector"
vector 602  ErlangenLTE.pgw.ppp[8].ppp  txState:vector  ETV
attr interpolationmode  sample-hold
attr title  "tx state, vector"
vector 612  ErlangenLTE.pgw.ppp[9].queue  queueLength:vector  ETV
attr interpolationmode  sample-hold
attr title  "queue length, vector"
vector 613  ErlangenLTE.pgw.ppp[9].ppp  txState:vector  ETV
attr interpolationmode  sample-hold
attr title  "tx state, vector"
vector 623  ErlangenLTE.pgw.ppp[10].queue  queueLength:vector  ETV
attr interpolationmode  sample-hold
attr title  "queue length, vector"
vector 624  ErlangenLTE.pgw.ppp[10].ppp  txState:vector  ETV
attr interpolationmode  sample-hold
attr title  "tx state, vector"
vector 634  ErlangenLTE.pgw.ppp[11].queue  queueLength:vector  ETV
attr interpolationmode  sample-hold
attr title  "queue length, vector"
vector 635  ErlangenLTE.pgw.ppp[11].ppp  txState:vector  ETV
attr interpolationmode  sample-hold
attr title  "tx state, vector"
vector 645  ErlangenLTE.pgw.ppp[12].queue  queueLength:vector  ETV
attr interpolationmode  sample-hold
attr title  "queue length, vector"
vector 646  ErlangenLTE.pgw.ppp[12].ppp  txState:vector  ETV
attr interpolationmode  sample-hold
attr title  "tx state, vector"
vector 656  ErlangenLTE.pgw.ppp[13].queue  queueLength:vector  ETV
attr interpolationmode  sample-hold
attr title  "queue length, vector"
vector 657  ErlangenLTE.pgw.ppp[13].ppp  txState:vector  ETV
attr interpolationmode  sample-hold
attr title  "tx state, vector"
vector 667  ErlangenLTE.pgw.ppp[14].queue  queueLength:vector  ETV
attr interpolationmode  sample-hold
attr title  "queue length, vector"
vector 668  ErlangenLTE.pgw.ppp[14].ppp  txState:vector  ETV
attr interpolationmode  sample-hold
attr title  "tx state, vector"
vector 678  ErlangenLTE.pgw.ppp[15].queue  queueLength:vector  ETV
attr interpolationmode  sample-hold
attr title  "queue length, vector"
vector 679  ErlangenLTE.pgw.ppp[15].ppp  txState:vector  ETV
attr interpolationmode  sample-hold
attr title  "tx state, vector"
vector 689  ErlangenLTE.pgw.ppp[16].queue  queueLength:vector  ETV
attr interpolationmode  sample-hold
attr title  "queue length, vector"
vector 690  ErlangenLTE.pgw.ppp[16].ppp  txState:vector  ETV
attr interpolationmode  sample-hold
attr title  "tx state, vector"
vector 700  ErlangenLTE.pgw.ppp[17].queue  queueLength:vector  ETV
attr interpolationmode  sample-hold
attr title  "queue length, vector"
vector 701  ErlangenLTE.pgw.ppp[17].ppp  txState:vector  ETV
attr interpolationmode  sample-hold
attr title  "tx state, vector"
vector 711  ErlangenLTE.pgw.ppp[18].queue  queueLength:vector  ETV
attr interpolationmode  sample-hold
attr title  "queue length, vector"
vector 712  ErlangenLTE.pgw.ppp[18].ppp  txState:vector  ETV
attr interpolationmode  sample-hold
attr title  "tx state, vector"
vector 722  ErlangenLTE.pgw.ppp[19].queue  queueLength:vector  ETV
attr interpolationmode  sample-hold
attr title  "queue length, vector"
vector 723  ErlangenLTE.pgw.ppp[19].ppp  txState:vector  ETV
attr interpolationmode  sample-hold
attr title  "tx state, vector"
vector 733  ErlangenLTE.pgw.ppp[20].queue  queueLength:vector  ETV
attr interpolationmode  sample-hold
attr title  "queue length, vector"
vector 734  ErlangenLTE.pgw.ppp[20].ppp  txState:vector  ETV
attr interpolationmode  sample-hold
attr title  "tx state, vector"
vector 744  ErlangenLTE.pgw.ppp[21].queue  queueLength:vector  ETV
attr interpolationmode  sample-hold
attr title  "queue length, vector"
vector 745  ErlangenLTE.pgw.ppp[21].ppp  txState:vector  ETV
attr interpolationmode  sample-hold
attr title  "tx state, vector"
vector 755  ErlangenLTE.pgw.ppp[22].queue  queueLength:vector  ETV
attr interpolationmode  sample-hold
attr title  "queue length, vector"
vector 756  ErlangenLTE.pgw.ppp[22].ppp  txState:vector  ETV
attr interpolationmode  sample-hold
attr title  "tx state, vector"
vector 766  ErlangenLTE.pgw.ppp[23].queue  queueLength:vector  ETV
attr interpolationmode  sample-hold
attr title  "queue length, vector"
vector 767  ErlangenLTE.pgw.ppp[23].ppp  txState:vector  ETV
attr interpolationmode  sample-hold
attr title  "tx state, vector"
vector 777  ErlangenLTE.pgw.ppp[24].queue  queueLength:vector  ETV
attr interpolationmode  sample-hold
attr title  "queue length, vector"
vector 778  ErlangenLTE.pgw.ppp[24].ppp  txState:vector  ETV
attr interpolationmode  sample-hold
attr title  "tx state, vector"
vector 788  ErlangenLTE.pgw.ppp[25].queue  queueLength:vector  ETV
attr interpolationmode  sample-hold
attr title  "queue length, vector"
vector 789  ErlangenLTE.pgw.ppp[25].ppp  txState:vector  ETV
attr interpolationmode  sample-hold
attr title  "tx state, vector"
vector 799  ErlangenLTE.pgw.ppp[26].queue  queueLength:vector  ETV
attr interpolationmode  sample-hold
attr title  "queue length, vector"
vector 800  ErlangenLTE.pgw.ppp[26].ppp  txState:vector  ETV
attr interpolationmode  sample-hold
attr title  "tx state, vector"
vector 810  ErlangenLTE.pgw.ppp[27].queue  queueLength:vector  ETV
attr interpolationmode  sample-hold
attr title  "queue length, vector"
vector 811  ErlangenLTE.pgw.ppp[27].ppp  txState:vector  ETV
attr interpolationmode  sample-hold
attr title  "tx state, vector"
vector 821  ErlangenLTE.pgw.ppp[28].queue  queueLength:vector  ETV
attr interpolationmode  sample-hold
attr title  "queue length, vector"
vector 822  ErlangenLTE.pgw.ppp[28].ppp  txState:vector  ETV
attr interpolationmode  sample-hold
attr title  "tx state, vector"
vector 832  ErlangenLTE.pgw.ppp[29].queue  queueLength:vector  ETV
attr interpolationmode  sample-hold
attr title  "queue length, vector"
vector 833  ErlangenLTE.pgw.ppp[29].ppp  txState:vector  ETV
attr interpolationmode  sample-hold
attr title  "tx state, vector"
vector 843  ErlangenLTE.pgw.ppp[30].queue  queueLength:vector  ETV
attr interpolationmode  sample-hold
attr title  "queue length, vector"
vector 844  ErlangenLTE.pgw.ppp[30].ppp  txState:vector  ETV
attr interpolationmode  sample-hold
attr title  "tx state, vector"
vector 854  ErlangenLTE.pgw.ppp[31].queue  queueLength:vector  ETV
attr interpolationmode  sample-hold
attr title  "queue length, vector"
vector 855  ErlangenLTE.pgw.ppp[31].ppp  txState:vector  ETV
attr interpolationmode  sample-hold
attr title  "tx state, vector"
vector 865  ErlangenLTE.pgw.ppp[32].queue  queueLength:vector  ETV
attr interpolationmode  sample-hold
attr title  "queue length, vector"
vector 866  ErlangenLTE.pgw.ppp[32].ppp  txState:vector  ETV
attr interpolationmode  sample-hold
attr title  "tx state, vector"
vector 876  ErlangenLTE.pgw.ppp[33].queue  queueLength:vector  ETV
attr interpolationmode  sample-hold
attr title  "queue length, vector"
vector 877  ErlangenLTE.pgw.ppp[33].ppp  txState:vector  ETV
attr interpolationmode  sample-hold
attr title  "tx state, vector"
vector 887  ErlangenLTE.pgw.ppp[34].queue  queueLength:vector  ETV
attr interpolationmode  sample-hold
attr title  "queue length, vector"
vector 888  ErlangenLTE.pgw.ppp[34].ppp  txState:vector  ETV
attr interpolationmode  sample-hold
attr title  "tx state, vector"
vector 898  ErlangenLTE.pgw.ppp[35].queue  queueLength:vector  ETV
attr interpolationmode  sample-hold
attr title  "queue length, vector"
vector 899  ErlangenLTE.pgw.ppp[35].ppp  txState:vector  ETV
attr interpolationmode  sample-hold
attr title  "tx state, vector"
vector 909  ErlangenLTE.pgw.ppp[36].queue  queueLength:vector  ETV
attr interpolationmode  sample-hold
attr title  "queue length, vector"
vector 910  ErlangenLTE.pgw.ppp[36].ppp  txState:vector  ETV
attr interpolationmode  sample-hold
attr title  "tx state, vector"
vector 920  ErlangenLTE.pgw.ppp[37].queue  queueLength:vector  ETV
attr interpolationmode  sample-hold
attr title  "queue length, vector"
vector 921  ErlangenLTE.pgw.ppp[37].ppp  txState:vector  ETV
attr interpolationmode  sample-hold
attr title  "tx state, vector"
vector 931  ErlangenLTE.pgw.ppp[38].queue  queueLength:vector  ETV
attr interpolationmode  sample-hold
attr title  "queue length, vector"
vector 932  ErlangenLTE.pgw.ppp[38].ppp  txState:vector  ETV
attr interpolationmode  sample-hold
attr title  "tx state, vector"
vector 942  ErlangenLTE.pgw.ppp[39].queue  queueLength:vector  ETV
attr interpolationmode  sample-hold
attr title  "queue length, vector"
vector 943  ErlangenLTE.pgw.ppp[39].ppp  txState:vector  ETV
attr interpolationmode  sample-hold
attr title  "tx state, vector"
vector 953  ErlangenLTE.pgw.ppp[40].queue  queueLength:vector  ETV
attr interpolationmode  sample-hold
attr title  "queue length, vector"
vector 954  ErlangenLTE.pgw.ppp[40].ppp  txState:vector  ETV
attr interpolationmode  sample-hold
attr title  "tx state, vector"
vector 964  ErlangenLTE.pgw.ppp[41].queue  queueLength:vector  ETV
attr interpolationmode  sample-hold
attr title  "queue length, vector"
vector 965  ErlangenLTE.pgw.ppp[41].ppp  txState:vector  ETV
attr interpolationmode  sample-hold
attr title  "tx state, vector"
vector 975  ErlangenLTE.pgw.ppp[42].queue  queueLength:vector  ETV
attr interpolationmode  sample-hold
attr title  "queue length, vector"
vector 976  ErlangenLTE.pgw.ppp[42].ppp  txState:vector  ETV
attr interpolationmode  sample-hold
attr title  "tx state, vector"
vector 986  ErlangenLTE.pgw.ppp[43].queue  queueLength:vector  ETV
attr interpolationmode  sample-hold
attr title  "queue length, vector"
vector 987  ErlangenLTE.pgw.ppp[43].ppp  txState:vector  ETV
attr interpolationmode  sample-hold
attr title  "tx state, vector"
vector 997  ErlangenLTE.pgw.ppp[44].queue  queueLength:vector  ETV
attr interpolationmode  sample-hold
attr title  "queue length, vector"
vector 998  ErlangenLTE.pgw.ppp[44].ppp  txState:vector  ETV
attr interpolationmode  sample-hold
attr title  "tx state, vector"
vector 1008  ErlangenLTE.pgw.ppp[45].queue  queueLength:vector  ETV
attr interpolationmode  sample-hold
attr title  "queue length, vector"
vector 1009  ErlangenLTE.pgw.ppp[45].ppp  txState:vector  ETV
attr interpolationmode  sample-hold
attr title  "tx state, vector"
vector 1019  ErlangenLTE.pgw.ppp[46].queue  queueLength:vector  ETV
attr interpolationmode  sample-hold
attr title  "queue length, vector"
vector 1020  ErlangenLTE.pgw.ppp[46].ppp  txState:vector  ETV
attr interpolationmode  sample-hold
attr title  "tx state, vector"
vector 1030  ErlangenLTE.pgw.ppp[47].queue  queueLength:vector  ETV
attr interpolationmode  sample-hold
attr title  "queue length, vector"
vector 1031  ErlangenLTE.pgw.ppp[47].ppp  txState:vector  ETV
attr interpolationmode  sample-hold
attr title  "tx state, vector"
vector 1041  ErlangenLTE.pgw.ppp[48].queue  queueLength:vector  ETV
attr interpolationmode  sample-hold
attr title  "queue length, vector"
vector 1042  ErlangenLTE.pgw.ppp[48].ppp  txState:vector  ETV
attr interpolationmode  sample-hold
attr title  "tx state, vector"
vector 1052  ErlangenLTE.pgw.ppp[49].queue  queueLength:vector  ETV
attr interpolationmode  sample-hold
attr title  "queue length, vector"
vector 1053  ErlangenLTE.pgw.ppp[49].ppp  txState:vector  ETV
attr interpolationmode  sample-hold
attr title  "tx state, vector"
vector 1063  ErlangenLTE.pgw.ppp[50].queue  queueLength:vector  ETV
attr interpolationmode  sample-hold
attr title  "queue length, vector"
vector 1064  ErlangenLTE.pgw.ppp[50].ppp  txState:vector  ETV
attr interpolationmode  sample-hold
attr title  "tx state, vector"
vector 1074  ErlangenLTE.pgw.ppp[51].queue  queueLength:vector  ETV
attr interpolationmode  sample-hold
attr title  "queue length, vector"
vector 1075  ErlangenLTE.pgw.ppp[51].ppp  txState:vector  ETV
attr interpolationmode  sample-hold
attr title  "tx state, vector"
vector 1085  ErlangenLTE.pgw.ppp[52].queue  queueLength:vector  ETV
attr interpolationmode  sample-hold
attr title  "queue length, vector"
vector 1086  ErlangenLTE.pgw.ppp[52].ppp  txState:vector  ETV
attr interpolationmode  sample-hold
attr title  "tx state, vector"
vector 1096  ErlangenLTE.pgw.ppp[53].queue  queueLength:vector  ETV
attr interpolationmode  sample-hold
attr title  "queue length, vector"
vector 1097  ErlangenLTE.pgw.ppp[53].ppp  txState:vector  ETV
attr interpolationmode  sample-hold
attr title  "tx state, vector"
vector 1107  ErlangenLTE.pgw.ppp[54].queue  queueLength:vector  ETV
attr interpolationmode  sample-hold
attr title  "queue length, vector"
vector 1108  ErlangenLTE.pgw.ppp[54].ppp  txState:vector  ETV
attr interpolationmode  sample-hold
attr title  "tx state, vector"
vector 1118  ErlangenLTE.pgw.ppp[55].queue  queueLength:vector  ETV
attr interpolationmode  sample-hold
attr title  "queue length, vector"
vector 1119  ErlangenLTE.pgw.ppp[55].ppp  txState:vector  ETV
attr interpolationmode  sample-hold
attr title  "tx state, vector"
vector 1129  ErlangenLTE.pgw.ppp[56].queue  queueLength:vector  ETV
attr interpolationmode  sample-hold
attr title  "queue length, vector"
vector 1130  ErlangenLTE.pgw.ppp[56].ppp  txState:vector  ETV
attr interpolationmode  sample-hold
attr title  "tx state, vector"
vector 1140  ErlangenLTE.pgw.ppp[57].queue  queueLength:vector  ETV
attr interpolationmode  sample-hold
attr title  "queue length, vector"
vector 1141  ErlangenLTE.pgw.ppp[57].ppp  txState:vector  ETV
attr interpolationmode  sample-hold
attr title  "tx state, vector"
vector 1151  ErlangenLTE.pgw.ppp[58].queue  queueLength:vector  ETV
attr interpolationmode  sample-hold
attr title  "queue length, vector"
vector 1152  ErlangenLTE.pgw.ppp[58].ppp  txState:vector  ETV
attr interpolationmode  sample-hold
attr title  "tx state, vector"
vector 1162  ErlangenLTE.pgw.ppp[59].queue  queueLength:vector  ETV
attr interpolationmode  sample-hold
attr title  "queue length, vector"
vector 1163  ErlangenLTE.pgw.ppp[59].ppp  txState:vector  ETV
attr interpolationmode  sample-hold
attr title  "tx state, vector"
vector 1173  ErlangenLTE.pgw.ppp[60].queue  queueLength:vector  ETV
attr interpolationmode  sample-hold
attr title  "queue length, vector"
vector 1174  ErlangenLTE.pgw.ppp[60].ppp  txState:vector  ETV
attr interpolationmode  sample-hold
attr title  "tx state, vector"
vector 1184  ErlangenLTE.pgw.ppp[61].queue  queueLength:vector  ETV
attr interpolationmode  sample-hold
attr title  "queue length, vector"
vector 1185  ErlangenLTE.pgw.ppp[61].ppp  txState:vector  ETV
attr interpolationmode  sample-hold
attr title  "tx state, vector"
vector 1195  ErlangenLTE.pgw.ppp[62].queue  queueLength:vector  ETV
attr interpolationmode  sample-hold
attr title  "queue length, vector"
vector 1196  ErlangenLTE.pgw.ppp[62].ppp  txState:vector  ETV
[...]
attr interpolationmode  none
attr source  rxPkOk
attr title  "packets received OK, vector(packetBytes)"
vector 6292  ErlangenLTE.eNodeB26.pppIf.ppp  passedUpPk:vector(packetBytes)  ETV
attr interpolationmode  none
attr source  packetSentToUpper
attr title  "packets passed to higher layer, vector(packetBytes)"
vector 6329  ErlangenLTE.eNodeB26.udp  rcvdPk:vector(packetBytes)  ETV
attr interpolationmode  none
attr source  rcvdPk
attr title  "packets received, vector(packetBytes)"
vector 6330  ErlangenLTE.eNodeB26.udp  passedUpPk:vector(count)  ETV
attr interpolationmode  none
attr title  "packets passed up, vector(count)"
vector 6255  ErlangenLTE.eNodeB26.lteNic.pdcpRrc  receivedPacketFromUpperLayer:vector(packetBytes)  ETV
attr interpolationmode  none
attr source  receivedPacketFromUpperLayer
vector 6258  ErlangenLTE.eNodeB26.lteNic.pdcpRrc  sentPacketToLowerLayer:vector(packetBytes)  ETV
attr interpolationmode  none
attr source  sentPacketToLowerLayer
vector 6277  ErlangenLTE.eNodeB26.lteNic.mac  receivedPacketFromUpperLayer:vector(packetBytes)  ETV
attr interpolationmode  none
attr source  receivedPacketFromUpperLayer
vector 6278  ErlangenLTE.eNodeB26.lteNic.mac  receivedPacketFromLowerLayer:vector(packetBytes)  ETV
attr interpolationmode  none
attr source  receivedPacketFromLowerLayer
vector 6281  ErlangenLTE.eNodeB26.lteNic.mac  measuredItbs:vector  ETV
attr source  measuredItbs
attr title  "TBS index, vector"
attr unit  ""
vector 6279  ErlangenLTE.eNodeB26.lteNic.mac  sentPacketToUpperLayer:vector(packetBytes)  ETV
attr interpolationmode  none
attr source  sentPacketToUpperLayer
vector 6280  ErlangenLTE.eNodeB26.lteNic.mac  sentPacketToLowerLayer:vector(packetBytes)  ETV
attr interpolationmode  none
attr source  sentPacketToLowerLayer
vector 644272  ErlangenLTE.car[22].lteNic.phy  averageCqiDl:vector  ETV
attr source  averageCqiDl
attr title  "Average Cqi reported in DL, vector"
attr unit  cqi
vector 644267  ErlangenLTE.car[22].lteNic.mac  receivedPacketFromLowerLayer:vector(packetBytes)  ETV
attr interpolationmode  none
attr source  receivedPacketFromLowerLayer
vector 644269  ErlangenLTE.car[22].lteNic.mac  sentPacketToLowerLayer:vector(packetBytes)  ETV
attr interpolationmode  none
attr source  sentPacketToLowerLayer
vector 6259  ErlangenLTE.eNodeB26.lteNic.mac  macDelayDl:vector  ETV
attr source  macDelayDl
attr title  "Delay at the MAC layer UL, vector"
attr unit  s
vector 644268  ErlangenLTE.car[22].lteNic.mac  sentPacketToUpperLayer:vector(packetBytes)  ETV
attr interpolationmode  none
attr source  sentPacketToUpperLayer
vector 644245  ErlangenLTE.car[22].lteNic.pdcpRrc  receivedPacketFromLowerLayer:vector(packetBytes)  ETV
attr interpolationmode  none
attr source  receivedPacketFromLowerLayer
vector 644246  ErlangenLTE.car[22].lteNic.pdcpRrc  sentPacketToUpperLayer:vector(packetBytes)  ETV
attr interpolationmode  none
attr source  sentPacketToUpperLayer
vector 644240  ErlangenLTE.car[22].udp  rcvdPk:vector(packetBytes)  ETV
attr interpolationmode  none
attr source  rcvdPk
attr title  "packets received, vector(packetBytes)"
vector 644241  ErlangenLTE.car[22].udp  passedUpPk:vector(count)  ETV
attr interpolationmode  none
attr title  "packets passed up, vector(count)"
vector 644238  ErlangenLTE.car[22].udpApp[0]  voipReceivedThroughtput:vector  ETV
attr source  voipReceivedThroughtput
attr title  "Throughput received at the application level, vector"
attr unit  Bps
vector 644255  ErlangenLTE.car[22].lteNic.mac  harqErrorRate_1st_Dl:vector  ETV
attr source  harqErrorRate_1st_Dl
attr title  "Harq Error Rate Dl, vector"
attr unit  ""
vector 644252  ErlangenLTE.car[22].lteNic.mac  harqErrorRateDl:vector  ETV
attr source  harqErrorRateDl
attr title  "Harq Error Rate Dl, vector"
attr unit  ""
644200	29139438 6472 32466464 33497676 157.213 162.106 240 40 40 9600 384000
644203	29145910 6604 32466463 33497675 157.213 162.106 240 1 240 28920 4636840
644202	29152514 6472 32466463 33497675 157.213 162.106 240 48 48 11520 552960
644208	29158986 6472 32466460 33497672 157.213 162.106 240 68 68 16320 1109760
644207	29165458 6472 32466460 33497672 157.213 162.106 240 69 69 16560 1142640
644226	29171930 208 33104649 33139570 160.244 160.404 8 0 1 6 6
644223	29172138 286 33037759 33496157 159.938 162.098 11 0 1 8 8
644220	29172424 1532 32466736 33495301 157.214 162.092 59 0 1 11 11
644217	29173956 10857 32465434 33497945 157.208 162.107 418 0 1 59 59
644214	29184813 12883 32465434 33497945 157.208 162.107 496 0 1 84 84
644231	29197696 12884 32465145 33497668 157.207 162.106 496 0 0 0 0
644230	29210580 11113 32465294 33497668 157.208 162.106 412 7 416 17522 997254
644229	29221693 13387 32464848 33497344 157.204 162.103 496 9 418 22669 1296819
644234	29235080 12873 32464847 33497343 157.204 162.103 496 2 6 1029 2193
644233	29247953 25 32459283 32459283 157.2 157.2 1 65 65 65 4225
vector 644258  ErlangenLTE.car[22].lteNic.mac  harqErrorRate_2nd_Dl:vector  ETV
attr source  harqErrorRate_2nd_Dl
attr title  "Harq Error Rate Dl, vector"
attr unit  ""
vector 644309  ErlangenLTE.car[23].lteNic.phy  servingCell:vector  ETV
attr source  servingCell
attr title  "ID of the serving eNodeB for the UE, vector"
attr unit  ""
vector 644310  ErlangenLTE.car[23].lteNic.phy  averageCqiDl:vector  ETV
attr source  averageCqiDl
attr title  "Average Cqi reported in DL, vector"
attr unit  cqi
vector 644305  ErlangenLTE.car[23].lteNic.mac  receivedPacketFromLowerLayer:vector(packetBytes)  ETV
attr interpolationmode  none
attr source  receivedPacketFromLowerLayer
vector 644307  ErlangenLTE.car[23].lteNic.mac  sentPacketToLowerLayer:vector(packetBytes)  ETV
attr interpolationmode  none
attr source  sentPacketToLowerLayer
vector 644306  ErlangenLTE.car[23].lteNic.mac  sentPacketToUpperLayer:vector(packetBytes)  ETV
attr interpolationmode  none
attr source  sentPacketToUpperLayer
vector 644283  ErlangenLTE.car[23].lteNic.pdcpRrc  receivedPacketFromLowerLayer:vector(packetBytes)  ETV
attr interpolationmode  none
attr source  receivedPacketFromLowerLayer
vector 644284  ErlangenLTE.car[23].lteNic.pdcpRrc  sentPacketToUpperLayer:vector(packetBytes)  ETV
attr interpolationmode  none
attr source  sentPacketToUpperLayer
vector 644278  ErlangenLTE.car[23].udp  rcvdPk:vector(packetBytes)  ETV
attr interpolationmode  none
attr source  rcvdPk
attr title  "packets received, vector(packetBytes)"
vector 644279  ErlangenLTE.car[23].udp  passedUpPk:vector(count)  ETV
attr interpolationmode  none
attr title  "packets passed up, vector(count)"
vector 644276  ErlangenLTE.car[23].udpApp[0]  voipReceivedThroughtput:vector  ETV
attr source  voipReceivedThroughtput
attr title  "Throughput received at the application level, vector"
attr unit  Bps
vector 644293  ErlangenLTE.car[23].lteNic.mac  harqErrorRate_1st_Dl:vector  ETV
attr source  harqErrorRate_1st_Dl
attr title  "Harq Error Rate Dl, vector"
attr unit  ""
vector 644290  ErlangenLTE.car[23].lteNic.mac  harqErrorRateDl:vector  ETV
attr source  harqErrorRateDl
attr title  "Harq Error Rate Dl, vector"
attr unit  ""
644238	29250157 7209 33580498 35002995 162.507 169.294 267 40 40 10680 427200
644241	29257366 7368 33580497 35002994 162.507 169.294 267 1 267 35778 6380410
644240	29264734 7209 33580497 35002994 162.507 169.294 267 48 48 12816 615168
644246	29271943 7209 33580494 35002991 162.507 169.294 267 68 68 18156 1234608
644245	29279152 7209 33580494 35002991 162.507 169.294 267 69 69 18423 1271187
644258	29286361 26 33856767 33856767 163.812 163.812 1 0 0 0 0
644255	29286387 6968 33580769 35003264 162.508 169.295 268 0 1 1 1
644252	29293355 6994 33580769 35003264 162.508 169.295 269 0 1 1 1
644269	29300349 6994 33580490 35002987 162.507 169.294 269 0 0 0 0
644268	29307343 7236 33580490 35002987 162.507 169.294 268 25 71 18959 1343835
644267	29314579 7263 33580177 35002705 162.504 169.291 269 27 73 19568 1426072
644272	29321842 7242 33580176 35002704 162.504 169.291 269 2 15 3657 51363
644271	29329084 25 33578984 33578984 162.5 162.5 1 26 26 26 676
vector 644347  ErlangenLTE.car[24].lteNic.phy  servingCell:vector  ETV
attr source  servingCell
attr title  "ID of the serving eNodeB for the UE, vector"
attr unit  ""
vector 774  ErlangenLTE.pgw.ppp[24].queue  rcvdPk:vector(packetBytes)  ETV
attr interpolationmode  none
attr title  "received packets, vector(packetBytes)"
vector 776  ErlangenLTE.pgw.ppp[24].queue  queueingTime:vector  ETV
attr interpolationmode  none
attr title  "queueing time, vector"
vector 783  ErlangenLTE.pgw.ppp[24].ppp  rcvdPkFromHL:vector(packetBytes)  ETV
attr interpolationmode  none
attr source  packetReceivedFromUpper
attr title  "packets received from higher layer, vector(packetBytes)"
vector 779  ErlangenLTE.pgw.ppp[24].ppp  txPk:vector(packetBytes)  ETV
attr interpolationmode  none
attr source  packetSentToLower
attr title  "packets transmitted, vector(packetBytes)"
vector 6075  ErlangenLTE.eNodeB25.pppIf.ppp  rxPkOk:vector(packetBytes)  ETV
attr interpolationmode  none
attr source  rxPkOk
attr title  "packets received OK, vector(packetBytes)"
vector 6079  ErlangenLTE.eNodeB25.pppIf.ppp  passedUpPk:vector(packetBytes)  ETV
attr interpolationmode  none
attr source  packetSentToUpper
attr title  "packets passed to higher layer, vector(packetBytes)"
vector 6215  ErlangenLTE.eNodeB25.udp  rcvdPk:vector(packetBytes)  ETV
attr interpolationmode  none
attr source  rcvdPk
attr title  "packets received, vector(packetBytes)"
vector 6216  ErlangenLTE.eNodeB25.udp  passedUpPk:vector(count)  ETV
attr interpolationmode  none
attr title  "packets passed up, vector(count)"
vector 6042  ErlangenLTE.eNodeB25.lteNic.pdcpRrc  receivedPacketFromUpperLayer:vector(packetBytes)  ETV
attr interpolationmode  none
attr source  receivedPacketFromUpperLayer
vector 6045  ErlangenLTE.eNodeB25.lteNic.pdcpRrc  sentPacketToLowerLayer:vector(packetBytes)  ETV
attr interpolationmode  none
attr source  sentPacketToLowerLayer
vector 6064  ErlangenLTE.eNodeB25.lteNic.mac  receivedPacketFromUpperLayer:vector(packetBytes)  ETV
attr interpolationmode  none
attr source  receivedPacketFromUpperLayer
vector 6065  ErlangenLTE.eNodeB25.lteNic.mac  receivedPacketFromLowerLayer:vector(packetBytes)  ETV
attr interpolationmode  none
attr source  receivedPacketFromLowerLayer
vector 6068  ErlangenLTE.eNodeB25.lteNic.mac  measuredItbs:vector  ETV
attr source  measuredItbs
attr title  "TBS index, vector"
attr unit  ""
vector 6066  ErlangenLTE.eNodeB25.lteNic.mac  sentPacketToUpperLayer:vector(packetBytes)  ETV
attr interpolationmode  none
attr source  sentPacketToUpperLayer
vector 6067  ErlangenLTE.eNodeB25.lteNic.mac  sentPacketToLowerLayer:vector(packetBytes)  ETV
attr interpolationmode  none
attr source  sentPacketToLowerLayer
vector 644348  ErlangenLTE.car[24].lteNic.phy  averageCqiDl:vector  ETV
attr source  averageCqiDl
attr title  "Average Cqi reported in DL, vector"
attr unit  cqi
vector 644343  ErlangenLTE.car[24].lteNic.mac  receivedPacketFromLowerLayer:vector(packetBytes)  ETV
attr interpolationmode  none
attr source  receivedPacketFromLowerLayer
vector 644345  ErlangenLTE.car[24].lteNic.mac  sentPacketToLowerLayer:vector(packetBytes)  ETV
attr interpolationmode  none
attr source  sentPacketToLowerLayer
vector 6046  ErlangenLTE.eNodeB25.lteNic.mac  macDelayDl:vector  ETV
attr source  macDelayDl
attr title  "Delay at the MAC layer UL, vector"
attr unit  s
vector 644344  ErlangenLTE.car[24].lteNic.mac  sentPacketToUpperLayer:vector(packetBytes)  ETV
attr interpolationmode  none
attr source  sentPacketToUpperLayer
vector 644321  ErlangenLTE.car[24].lteNic.pdcpRrc  receivedPacketFromLowerLayer:vector(packetBytes)  ETV
attr interpolationmode  none
attr source  receivedPacketFromLowerLayer
vector 644322  ErlangenLTE.car[24].lteNic.pdcpRrc  sentPacketToUpperLayer:vector(packetBytes)  ETV
attr interpolationmode  none
attr source  sentPacketToUpperLayer
vector 644316  ErlangenLTE.car[24].udp  rcvdPk:vector(packetBytes)  ETV
attr interpolationmode  none
attr source  rcvdPk
attr title  "packets received, vector(packetBytes)"
vector 644317  ErlangenLTE.car[24].udp  passedUpPk:vector(count)  ETV
attr interpolationmode  none
attr title  "packets passed up, vector(count)"
vector 644314  ErlangenLTE.car[24].udpApp[0]  voipReceivedThroughtput:vector  ETV
attr source  voipReceivedThroughtput
attr title  "Throughput received at the application level, vector"
attr unit  Bps
vector 644331  ErlangenLTE.car[24].lteNic.mac  harqErrorRate_1st_Dl:vector  ETV
attr source  harqErrorRate_1st_Dl
attr title  "Harq Error Rate Dl, vector"
attr unit  ""
vector 644328  ErlangenLTE.car[24].lteNic.mac  harqErrorRateDl:vector  ETV
attr source  harqErrorRateDl
attr title  "Harq Error Rate Dl, vector"
attr unit  ""
644276	29333809 2052 35380662 36303221 171.108 175.482 76 40 40 3040 121600
644279	29335861 2043 35380661 36303220 171.108 175.482 76 1 76 2926 149226
644278	29337904 2052 35380661 36303220 171.108 175.482 76 48 48 3648 175104
644284	29339956 2052 35380658 36303217 171.108 175.482 76 68 68 5168 351424
644283	29342008 2052 35380658 36303217 171.108 175.482 76 69 69 5244 361836
644293	29344060 2678 35380799 36303504 171.108 175.483 103 0 0 0 0
644290	29346738 2678 35380799 36303504 171.108 175.483 103 0 0 0 0
644307	29349416 2678 35380504 36303213 171.107 175.482 103 0 0 0 0
644306	29352094 2781 35380504 36303213 171.107 175.482 103 25 71 5450 326092
644305	29354875 2764 35380214 36302471 171.104 175.479 103 27 73 5656 348304
644310	29357639 2661 35380213 36302470 171.104 175.479 103 2 8 390 2012
644309	29360300 25 35379031 35379031 171.1 171.1 1 26 26 26 676
vector 644385  ErlangenLTE.car[25].lteNic.phy  servingCell:vector  ETV
attr source  servingCell
attr title  "ID of the serving eNodeB for the UE, vector"
attr unit  ""
vector 510  ErlangenLTE.pgw.ppp[0].queue  rcvdPk:vector(packetBytes)  ETV
attr interpolationmode  none
attr title  "received packets, vector(packetBytes)"
vector 512  ErlangenLTE.pgw.ppp[0].queue  queueingTime:vector  ETV
attr interpolationmode  none
attr title  "queueing time, vector"
vector 519  ErlangenLTE.pgw.ppp[0].ppp  rcvdPkFromHL:vector(packetBytes)  ETV
attr interpolationmode  none
attr source  packetReceivedFromUpper
attr title  "packets received from higher layer, vector(packetBytes)"
vector 515  ErlangenLTE.pgw.ppp[0].ppp  txPk:vector(packetBytes)  ETV
attr interpolationmode  none
attr source  packetSentToLower
attr title  "packets transmitted, vector(packetBytes)"
vector 1285  ErlangenLTE.eNodeB1.pppIf.ppp  rxPkOk:vector(packetBytes)  ETV
attr interpolationmode  none
attr source  rxPkOk
attr title  "packets received OK, vector(packetBytes)"
vector 1289  ErlangenLTE.eNodeB1.pppIf.ppp  passedUpPk:vector(packetBytes)  ETV
attr interpolationmode  none
attr source  packetSentToUpper
attr title  "packets passed to higher layer, vector(packetBytes)"
vector 1447  ErlangenLTE.eNodeB1.udp  rcvdPk:vector(packetBytes)  ETV
attr interpolationmode  none
attr source  rcvdPk
attr title  "packets received, vector(packetBytes)"
vector 1448  ErlangenLTE.eNodeB1.udp  passedUpPk:vector(count)  ETV
attr interpolationmode  none
attr title  "packets passed up, vector(count)"
vector 1252  ErlangenLTE.eNodeB1.lteNic.pdcpRrc  receivedPacketFromUpperLayer:vector(packetBytes)  ETV
attr interpolationmode  none
attr source  receivedPacketFromUpperLayer
vector 1255  ErlangenLTE.eNodeB1.lteNic.pdcpRrc  sentPacketToLowerLayer:vector(packetBytes)  ETV
attr interpolationmode  none
attr source  sentPacketToLowerLayer
vector 1274  ErlangenLTE.eNodeB1.lteNic.mac  receivedPacketFromUpperLayer:vector(packetBytes)  ETV
attr interpolationmode  none
attr source  receivedPacketFromUpperLayer
vector 1275  ErlangenLTE.eNodeB1.lteNic.mac  receivedPacketFromLowerLayer:vector(packetBytes)  ETV
attr interpolationmode  none
attr source  receivedPacketFromLowerLayer
vector 1278  ErlangenLTE.eNodeB1.lteNic.mac  measuredItbs:vector  ETV
attr source  measuredItbs
attr title  "TBS index, vector"
attr unit  ""
vector 1276  ErlangenLTE.eNodeB1.lteNic.mac  sentPacketToUpperLayer:vector(packetBytes)  ETV
attr interpolationmode  none
attr source  sentPacketToUpperLayer
vector 1277  ErlangenLTE.eNodeB1.lteNic.mac  sentPacketToLowerLayer:vector(packetBytes)  ETV
attr interpolationmode  none
attr source  sentPacketToLowerLayer
vector 644386  ErlangenLTE.car[25].lteNic.phy  averageCqiDl:vector  ETV
attr source  averageCqiDl
attr title  "Average Cqi reported in DL, vector"
attr unit  cqi
vector 644381  ErlangenLTE.car[25].lteNic.mac  receivedPacketFromLowerLayer:vector(packetBytes)  ETV
attr interpolationmode  none
attr source  receivedPacketFromLowerLayer
vector 644383  ErlangenLTE.car[25].lteNic.mac  sentPacketToLowerLayer:vector(packetBytes)  ETV
attr interpolationmode  none
attr source  sentPacketToLowerLayer
vector 1256  ErlangenLTE.eNodeB1.lteNic.mac  macDelayDl:vector  ETV
attr source  macDelayDl
attr title  "Delay at the MAC layer UL, vector"
attr unit  s
vector 644382  ErlangenLTE.car[25].lteNic.mac  sentPacketToUpperLayer:vector(packetBytes)  ETV
attr interpolationmode  none
attr source  sentPacketToUpperLayer
vector 644359  ErlangenLTE.car[25].lteNic.pdcpRrc  receivedPacketFromLowerLayer:vector(packetBytes)  ETV
attr interpolationmode  none
attr source  receivedPacketFromLowerLayer
vector 644360  ErlangenLTE.car[25].lteNic.pdcpRrc  sentPacketToUpperLayer:vector(packetBytes)  ETV
attr interpolationmode  none
attr source  sentPacketToUpperLayer
vector 644354  ErlangenLTE.car[25].udp  rcvdPk:vector(packetBytes)  ETV
attr interpolationmode  none
attr source  rcvdPk
attr title  "packets received, vector(packetBytes)"
vector 644355  ErlangenLTE.car[25].udp  passedUpPk:vector(count)  ETV
attr interpolationmode  none
attr title  "packets passed up, vector(count)"
vector 644352  ErlangenLTE.car[25].udpApp[0]  voipReceivedThroughtput:vector  ETV
attr source  voipReceivedThroughtput
attr title  "Throughput received at the application level, vector"
attr unit  Bps
vector 644369  ErlangenLTE.car[25].lteNic.mac  harqErrorRate_1st_Dl:vector  ETV
attr source  harqErrorRate_1st_Dl
attr title  "Harq Error Rate Dl, vector"
attr unit  ""
vector 644366  ErlangenLTE.car[25].lteNic.mac  harqErrorRateDl:vector  ETV
attr source  harqErrorRateDl
attr title  "Harq Error Rate Dl, vector"
attr unit  ""
644314	29365009 4965 36640160 37860942 177.107 182.91 187 40 40 7480 299200
644317	29369974 5044 36640159 37860941 177.107 182.91 187 1 187 17578 2197250
644316	29375018 4965 36640159 37860941 177.107 182.91 187 48 48 8976 430848
644322	29379983 4965 36640156 37860938 177.107 182.91 187 68 68 12716 864688
644321	29384948 4965 36640156 37860938 177.107 182.91 187 69 69 12903 890307
644331	29389913 4879 36640433 37861237 177.108 182.911 188 0 0 0 0
644328	29394792 4879 36640433 37861237 177.108 182.911 188 0 0 0 0
644345	29399671 4804 36640152 37860934 177.107 182.91 188 0 0 0 0
644344	29404475 4992 36640152 37860934 177.107 182.91 188 25 71 13279 940555
644343	29409467 5075 36639814 37860207 177.104 182.907 188 27 73 13655 994423
644348	29414542 4993 36639813 37860206 177.104 182.907 188 2 15 2022 24060
644347	29419535 25 36638636 36638636 177.1 177.1 1 25 25 25 625
644352	29419560 675 37942987 38041750 183.307 183.785 25 40 40 1000 40000
644355	29420235 666 37942986 38041749 183.307 183.785 25 1 25 325 5525
644354	29420901 675 37942986 38041749 183.307 183.785 25 48 48 1200 57600
644360	29421576 675 37942983 38041746 183.307 183.785 25 68 68 1700 115600
644359	29422251 675 37942983 38041746 183.307 183.785 25 69 69 1725 119025
644369	29422926 650 37943271 38042018 183.308 183.786 25 0 0 0 0
644366	29423576 650 37943271 38042018 183.308 183.786 25 0 0 0 0
644383	29424226 650 37942979 38041742 183.307 183.785 25 0 0 0 0
644382	29424876 675 37942979 38041742 183.307 183.785 25 71 71 1775 126025
644381	29425551 675 37942678 38041449 183.304 183.782 25 73 73 1825 133225
644386	29426226 675 37942677 38041448 183.304 183.782 25 13 15 357 5121
644385	29426901 24 37941489 37941489 183.3 183.3 1 1 1 1 1
